data_image0
_chemical_formula_structural       Li5O2S2Fe
_chemical_formula_sum              "Li5 O2 S2 Fe1"
_cell_length_a       5.41448
_cell_length_b       5.41448
_cell_length_c       5.56407
_cell_angle_alpha    119.115
_cell_angle_beta     119.115
_cell_angle_gamma    90

_space_group_name_H-M_alt    "P 1"
_space_group_IT_number       1

loop_
  _space_group_symop_operation_xyz
  'x, y, z'

loop_
  _atom_site_type_symbol
  _atom_site_label
  _atom_site_symmetry_multiplicity
  _atom_site_fract_x
  _atom_site_fract_y
  _atom_site_fract_z
  _atom_site_occupancy
  Li  Li1       1.0  0.24969  0.24953  0.99923  1.0000
  Li  Li2       1.0  0.74953  0.74969  0.99923  1.0000
  Li  Li3       1.0  0.25031  0.75031  0.00077  1.0000
  Li  Li4       1.0  0.75047  0.25047  0.00077  1.0000
  Li  Li5       1.0  0.25000  0.75000  0.50000  1.0000
  O   O1        1.0  0.98429  0.48429  0.96859  1.0000
  O   O2        1.0  0.51571  0.01571  0.03141  1.0000
  S   S1        1.0  0.25000  0.25000  0.50000  1.0000
  S   S2        1.0  0.75000  0.75000  0.50000  1.0000
  Fe  Fe1       1.0  0.75000  0.25000  0.50000  1.0000
