data_image0
_chemical_formula_structural       Li6O4S2Fe2
_chemical_formula_sum              "Li6 O4 S2 Fe2"
_cell_length_a       5.4855
_cell_length_b       6.42603
_cell_length_c       6.53508
_cell_angle_alpha    102.645
_cell_angle_beta     93.618
_cell_angle_gamma    113.274

_space_group_name_H-M_alt    "P 1"
_space_group_IT_number       1

loop_
  _space_group_symop_operation_xyz
  'x, y, z'

loop_
  _atom_site_type_symbol
  _atom_site_label
  _atom_site_symmetry_multiplicity
  _atom_site_fract_x
  _atom_site_fract_y
  _atom_site_fract_z
  _atom_site_occupancy
  Li  Li1       1.0  0.96237  0.07724  0.34260  1.0000
  Li  Li2       1.0  0.03763  0.92276  0.65740  1.0000
  Li  Li3       1.0  0.91101  0.65154  0.89000  1.0000
  Li  Li4       1.0  0.08899  0.34846  0.11000  1.0000
  Li  Li5       1.0  0.69461  0.47739  0.45741  1.0000
  Li  Li6       1.0  0.30539  0.52261  0.54259  1.0000
  O   O1        1.0  0.32714  0.29191  0.30593  1.0000
  O   O2        1.0  0.67286  0.70809  0.69407  1.0000
  O   O3        1.0  0.25907  0.90965  0.87215  1.0000
  O   O4        1.0  0.74093  0.09035  0.12785  1.0000
  S   S1        1.0  0.08847  0.72745  0.30411  1.0000
  S   S2        1.0  0.91153  0.27255  0.69589  1.0000
  Fe  Fe1       1.0  0.37990  0.02917  0.17767  1.0000
  Fe  Fe2       1.0  0.62010  0.97083  0.82233  1.0000
