data_image0
_chemical_formula_structural       Li6O4S2Fe2
_chemical_formula_sum              "Li6 O4 S2 Fe2"
_cell_length_a       6.32631
_cell_length_b       6.32631
_cell_length_c       6.63287
_cell_angle_alpha    61.5175
_cell_angle_beta     61.5175
_cell_angle_gamma    60

_space_group_name_H-M_alt    "P 1"
_space_group_IT_number       1

loop_
  _space_group_symop_operation_xyz
  'x, y, z'

loop_
  _atom_site_type_symbol
  _atom_site_label
  _atom_site_symmetry_multiplicity
  _atom_site_fract_x
  _atom_site_fract_y
  _atom_site_fract_z
  _atom_site_occupancy
  Li  Li1       1.0  0.24966  0.53260  0.45362  1.0000
  Li  Li2       1.0  0.53260  0.76411  0.45362  1.0000
  Li  Li3       1.0  0.76411  0.24966  0.45362  1.0000
  Li  Li4       1.0  0.14756  0.66174  0.81140  1.0000
  Li  Li5       1.0  0.66174  0.37930  0.81140  1.0000
  Li  Li6       1.0  0.37930  0.14756  0.81140  1.0000
  O   O1        1.0  0.45595  0.45561  0.13268  1.0000
  O   O2        1.0  0.45561  0.95577  0.13268  1.0000
  O   O3        1.0  0.95577  0.45595  0.13268  1.0000
  O   O4        1.0  0.45574  0.45574  0.63278  1.0000
  S   S1        1.0  0.79348  0.79348  0.61955  1.0000
  S   S2        1.0  0.11830  0.11830  0.64510  1.0000
  Fe  Fe1       1.0  0.25493  0.25493  0.23522  1.0000
  Fe  Fe2       1.0  0.65654  0.65654  0.03039  1.0000
