data_image0
_chemical_formula_structural       Li4O6S4Fe8
_chemical_formula_sum              "Li4 O6 S4 Fe8"
_cell_length_a       5.83836
_cell_length_b       6.97762
_cell_length_c       9.19332
_cell_angle_alpha    112.105
_cell_angle_beta     108.284
_cell_angle_gamma    90.5746

_space_group_name_H-M_alt    "P 1"
_space_group_IT_number       1

loop_
  _space_group_symop_operation_xyz
  'x, y, z'

loop_
  _atom_site_type_symbol
  _atom_site_label
  _atom_site_symmetry_multiplicity
  _atom_site_fract_x
  _atom_site_fract_y
  _atom_site_fract_z
  _atom_site_occupancy
  Li  Li1       1.0  0.54699  0.38062  0.01191  1.0000
  Li  Li2       1.0  0.53509  0.86872  0.98809  1.0000
  Li  Li3       1.0  0.99547  0.76585  0.88279  1.0000
  Li  Li4       1.0  0.11267  0.38306  0.11721  1.0000
  O   O1        1.0  0.76845  0.98194  0.21671  1.0000
  O   O2        1.0  0.55173  0.26523  0.78329  1.0000
  O   O3        1.0  0.63575  0.75221  0.79174  1.0000
  O   O4        1.0  0.84401  0.46047  0.20826  1.0000
  O   O5        1.0  0.57065  0.85241  0.50622  1.0000
  O   O6        1.0  0.06443  0.84619  0.49378  1.0000
  S   S1        1.0  0.16724  0.08595  0.90635  1.0000
  S   S2        1.0  0.26088  0.67959  0.09365  1.0000
  S   S3        1.0  0.39998  0.32790  0.38033  1.0000
  S   S4        1.0  0.01965  0.44757  0.61967  1.0000
  Fe  Fe1       1.0  0.32641  0.70026  0.58556  1.0000
  Fe  Fe2       1.0  0.74085  0.61471  0.41444  1.0000
  Fe  Fe3       1.0  0.63902  0.44389  0.68452  1.0000
  Fe  Fe4       1.0  0.95451  0.25937  0.31548  1.0000
  Fe  Fe5       1.0  0.99047  0.77460  0.24915  1.0000
  Fe  Fe6       1.0  0.74132  0.02545  0.75085  1.0000
  Fe  Fe7       1.0  0.19113  0.13955  0.66494  1.0000
  Fe  Fe8       1.0  0.52619  0.97461  0.33506  1.0000
