data_image0
_chemical_formula_structural       Li2O3S2Fe4
_chemical_formula_sum              "Li2 O3 S2 Fe4"
_cell_length_a       3.75396
_cell_length_b       3.75396
_cell_length_c       10.6548
_cell_angle_alpha    80.3773
_cell_angle_beta     80.3773
_cell_angle_gamma    89.4107

_space_group_name_H-M_alt    "P 1"
_space_group_IT_number       1

loop_
  _space_group_symop_operation_xyz
  'x, y, z'

loop_
  _atom_site_type_symbol
  _atom_site_label
  _atom_site_symmetry_multiplicity
  _atom_site_fract_x
  _atom_site_fract_y
  _atom_site_fract_z
  _atom_site_occupancy
  Li  Li1       1.0  0.00181  0.30928  0.58413  1.0000
  Li  Li2       1.0  0.69072  0.99819  0.41587  1.0000
  O   O1        1.0  0.50253  0.26067  0.67379  1.0000
  O   O2        1.0  0.73933  0.49747  0.32621  1.0000
  O   O3        1.0  0.13657  0.86343  0.50000  1.0000
  S   S1        1.0  0.33054  0.07310  0.12348  1.0000
  S   S2        1.0  0.92690  0.66946  0.87652  1.0000
  Fe  Fe1       1.0  0.83769  0.55511  0.11936  1.0000
  Fe  Fe2       1.0  0.44489  0.16231  0.88064  1.0000
  Fe  Fe3       1.0  0.23471  0.59456  0.33479  1.0000
  Fe  Fe4       1.0  0.40544  0.76529  0.66521  1.0000
