data_image0
_chemical_formula_structural       Li2O3S2Fe4
_chemical_formula_sum              "Li2 O3 S2 Fe4"
_cell_length_a       3.61466
_cell_length_b       5.9756
_cell_length_c       8.01641
_cell_angle_alpha    76.1359
_cell_angle_beta     84.2541
_cell_angle_gamma    82.8187

_space_group_name_H-M_alt    "P 1"
_space_group_IT_number       1

loop_
  _space_group_symop_operation_xyz
  'x, y, z'

loop_
  _atom_site_type_symbol
  _atom_site_label
  _atom_site_symmetry_multiplicity
  _atom_site_fract_x
  _atom_site_fract_y
  _atom_site_fract_z
  _atom_site_occupancy
  Li  Li1       1.0  0.58546  0.31674  0.94836  1.0000
  Li  Li2       1.0  0.41454  0.68326  0.05164  1.0000
  O   O1        1.0  0.53210  0.36310  0.19442  1.0000
  O   O2        1.0  0.46790  0.63690  0.80558  1.0000
  O   O3        1.0  0.50000  0.00000  0.00000  1.0000
  S   S1        1.0  0.01706  0.77167  0.37730  1.0000
  S   S2        1.0  0.98294  0.22833  0.62270  1.0000
  Fe  Fe1       1.0  0.50862  0.00245  0.23952  1.0000
  Fe  Fe2       1.0  0.49138  0.99755  0.76048  1.0000
  Fe  Fe3       1.0  0.99891  0.61726  0.68929  1.0000
  Fe  Fe4       1.0  0.00109  0.38274  0.31071  1.0000
