data_image0
_chemical_formula_structural       Li4O2S6Fe4
_chemical_formula_sum              "Li4 O2 S6 Fe4"
_cell_length_a       5.75076
_cell_length_b       5.75076
_cell_length_c       11.2964
_cell_angle_alpha    90.8174
_cell_angle_beta     90.8174
_cell_angle_gamma    97.588

_space_group_name_H-M_alt    "P 1"
_space_group_IT_number       1

loop_
  _space_group_symop_operation_xyz
  'x, y, z'

loop_
  _atom_site_type_symbol
  _atom_site_label
  _atom_site_symmetry_multiplicity
  _atom_site_fract_x
  _atom_site_fract_y
  _atom_site_fract_z
  _atom_site_occupancy
  Li  Li1       1.0  0.32545  0.20171  0.90734  1.0000
  Li  Li2       1.0  0.70171  0.82545  0.40734  1.0000
  Li  Li3       1.0  0.62621  0.34729  0.67651  1.0000
  Li  Li4       1.0  0.84729  0.12621  0.17651  1.0000
  O   O1        1.0  0.61845  0.36187  0.84398  1.0000
  O   O2        1.0  0.86187  0.11845  0.34398  1.0000
  S   S1        1.0  0.04222  0.41119  0.02929  1.0000
  S   S2        1.0  0.91119  0.54222  0.52929  1.0000
  S   S3        1.0  0.58282  0.88277  0.03129  1.0000
  S   S4        1.0  0.38277  0.08282  0.53129  1.0000
  S   S5        1.0  0.00899  0.90362  0.80382  1.0000
  S   S6        1.0  0.40362  0.50899  0.30382  1.0000
  Fe  Fe1       1.0  0.64163  0.30654  0.41245  1.0000
  Fe  Fe2       1.0  0.80654  0.14163  0.91245  1.0000
  Fe  Fe3       1.0  0.13298  0.29410  0.42411  1.0000
  Fe  Fe4       1.0  0.79410  0.63298  0.92411  1.0000
