data_image0
_chemical_formula_structural       Li5OS3Fe
_chemical_formula_sum              "Li5 O1 S3 Fe1"
_cell_length_a       3.86172
_cell_length_b       5.50341
_cell_length_c       7.34768
_cell_angle_alpha    90
_cell_angle_beta     90.0099
_cell_angle_gamma    90

_space_group_name_H-M_alt    "P 1"
_space_group_IT_number       1

loop_
  _space_group_symop_operation_xyz
  'x, y, z'

loop_
  _atom_site_type_symbol
  _atom_site_label
  _atom_site_symmetry_multiplicity
  _atom_site_fract_x
  _atom_site_fract_y
  _atom_site_fract_z
  _atom_site_occupancy
  Li  Li1       1.0  0.00018  0.21544  0.17689  1.0000
  Li  Li2       1.0  0.99982  0.21544  0.82311  1.0000
  Li  Li3       1.0  0.00023  0.68182  0.21573  1.0000
  Li  Li4       1.0  0.99977  0.68182  0.78427  1.0000
  Li  Li5       1.0  0.50000  0.52248  0.00000  1.0000
  O   O1        1.0  0.00000  0.47079  0.00000  1.0000
  S   S1        1.0  0.49975  0.94710  0.76735  1.0000
  S   S2        1.0  0.50025  0.94710  0.23265  1.0000
  S   S3        1.0  0.00000  0.40026  0.50000  1.0000
  Fe  Fe1       1.0  0.50000  0.14740  0.50000  1.0000
