data_image0
_chemical_formula_structural       Li4OS4Fe3
_chemical_formula_sum              "Li4 O1 S4 Fe3"
_cell_length_a       4.07436
_cell_length_b       6.99403
_cell_length_c       7.07247
_cell_angle_alpha    83.4063
_cell_angle_beta     73.2591
_cell_angle_gamma    73.0657

_space_group_name_H-M_alt    "P 1"
_space_group_IT_number       1

loop_
  _space_group_symop_operation_xyz
  'x, y, z'

loop_
  _atom_site_type_symbol
  _atom_site_label
  _atom_site_symmetry_multiplicity
  _atom_site_fract_x
  _atom_site_fract_y
  _atom_site_fract_z
  _atom_site_occupancy
  Li  Li1       1.0  0.23028  0.85988  0.53951  1.0000
  Li  Li2       1.0  0.62967  0.14012  0.46049  1.0000
  Li  Li3       1.0  0.80129  0.58122  0.67696  1.0000
  Li  Li4       1.0  0.05947  0.41878  0.32304  1.0000
  O   O1        1.0  0.43126  1.00000  1.00000  1.0000
  S   S1        1.0  0.86228  0.78470  0.35165  1.0000
  S   S2        1.0  0.99864  0.21530  0.64835  1.0000
  S   S3        1.0  0.18340  0.65569  0.83853  1.0000
  S   S4        1.0  0.67762  0.34431  0.16147  1.0000
  Fe  Fe1       1.0  0.52576  0.70746  0.10394  1.0000
  Fe  Fe2       1.0  0.33716  0.29254  0.89606  1.0000
  Fe  Fe3       1.0  0.93136  1.00000  1.00000  1.0000
