data_image0
_chemical_formula_structural       Li8O2S8Fe6
_chemical_formula_sum              "Li8 O2 S8 Fe6"
_cell_length_a       4.03152
_cell_length_b       9.12582
_cell_length_c       12.1346
_cell_angle_alpha    106.19
_cell_angle_beta     90
_cell_angle_gamma    90

_space_group_name_H-M_alt    "P 1"
_space_group_IT_number       1

loop_
  _space_group_symop_operation_xyz
  'x, y, z'

loop_
  _atom_site_type_symbol
  _atom_site_label
  _atom_site_symmetry_multiplicity
  _atom_site_fract_x
  _atom_site_fract_y
  _atom_site_fract_z
  _atom_site_occupancy
  Li  Li1       1.0  0.25224  0.75354  0.61481  1.0000
  Li  Li2       1.0  0.74776  0.75354  0.11481  1.0000
  Li  Li3       1.0  0.25770  0.33526  0.39706  1.0000
  Li  Li4       1.0  0.74230  0.33526  0.89706  1.0000
  Li  Li5       1.0  0.24499  0.60736  0.99936  1.0000
  Li  Li6       1.0  0.75501  0.60736  0.49936  1.0000
  Li  Li7       1.0  0.74551  0.59243  0.85863  1.0000
  Li  Li8       1.0  0.25449  0.59243  0.35863  1.0000
  O   O1        1.0  0.74625  0.53954  0.00517  1.0000
  O   O2        1.0  0.25375  0.53954  0.50517  1.0000
  S   S1        1.0  0.75061  0.35759  0.70234  1.0000
  S   S2        1.0  0.24939  0.35759  0.20234  1.0000
  S   S3        1.0  0.75241  0.71205  0.31236  1.0000
  S   S4        1.0  0.24759  0.71205  0.81236  1.0000
  S   S5        1.0  0.74910  0.11473  0.95976  1.0000
  S   S6        1.0  0.25090  0.11473  0.45976  1.0000
  S   S7        1.0  0.24839  0.87546  0.11908  1.0000
  S   S8        1.0  0.75161  0.87546  0.61908  1.0000
  Fe  Fe1       1.0  0.74912  0.46687  0.14453  1.0000
  Fe  Fe2       1.0  0.25088  0.46687  0.64453  1.0000
  Fe  Fe3       1.0  0.75084  0.10578  0.56663  1.0000
  Fe  Fe4       1.0  0.24916  0.10578  0.06663  1.0000
  Fe  Fe5       1.0  0.74845  0.88107  0.81282  1.0000
  Fe  Fe6       1.0  0.25155  0.88107  0.31282  1.0000
