data_image0
_chemical_formula_structural       Li4OS4Fe3
_chemical_formula_sum              "Li4 O1 S4 Fe3"
_cell_length_a       4.10031
_cell_length_b       6.84963
_cell_length_c       7.57644
_cell_angle_alpha    81.6785
_cell_angle_beta     89.7041
_cell_angle_gamma    72.8001

_space_group_name_H-M_alt    "P 1"
_space_group_IT_number       1

loop_
  _space_group_symop_operation_xyz
  'x, y, z'

loop_
  _atom_site_type_symbol
  _atom_site_label
  _atom_site_symmetry_multiplicity
  _atom_site_fract_x
  _atom_site_fract_y
  _atom_site_fract_z
  _atom_site_occupancy
  Li  Li1       1.0  0.18907  0.13210  0.04650  1.0000
  Li  Li2       1.0  0.81093  0.86790  0.95350  1.0000
  Li  Li3       1.0  0.34824  0.81062  0.40010  1.0000
  Li  Li4       1.0  0.65176  0.18938  0.59990  1.0000
  O   O1        1.0  0.50000  0.50000  0.50000  1.0000
  S   S1        1.0  0.36961  0.74615  0.07893  1.0000
  S   S2        1.0  0.63039  0.25385  0.92107  1.0000
  S   S3        1.0  0.15010  0.20185  0.35063  1.0000
  S   S4        1.0  0.84990  0.79815  0.64937  1.0000
  Fe  Fe1       1.0  0.44556  0.60439  0.77906  1.0000
  Fe  Fe2       1.0  0.55444  0.39561  0.22094  1.0000
  Fe  Fe3       1.0  0.00000  0.50000  0.50000  1.0000
