data_image0
_chemical_formula_structural       Li4OS4Fe3
_chemical_formula_sum              "Li4 O1 S4 Fe3"
_cell_length_a       3.71605
_cell_length_b       6.01902
_cell_length_c       8.90648
_cell_angle_alpha    108.101
_cell_angle_beta     99.7865
_cell_angle_gamma    92.2192

_space_group_name_H-M_alt    "P 1"
_space_group_IT_number       1

loop_
  _space_group_symop_operation_xyz
  'x, y, z'

loop_
  _atom_site_type_symbol
  _atom_site_label
  _atom_site_symmetry_multiplicity
  _atom_site_fract_x
  _atom_site_fract_y
  _atom_site_fract_z
  _atom_site_occupancy
  Li  Li1       1.0  0.59397  0.70038  0.64263  1.0000
  Li  Li2       1.0  0.40603  0.29962  0.35737  1.0000
  Li  Li3       1.0  0.13141  0.48421  0.79902  1.0000
  Li  Li4       1.0  0.86859  0.51579  0.20098  1.0000
  O   O1        1.0  0.00000  0.50000  0.00000  1.0000
  S   S1        1.0  0.56596  0.28669  0.62479  1.0000
  S   S2        1.0  0.43404  0.71331  0.37521  1.0000
  S   S3        1.0  0.18112  0.90005  0.80844  1.0000
  S   S4        1.0  0.81888  0.09995  0.19156  1.0000
  Fe  Fe1       1.0  0.26279  0.81589  0.09508  1.0000
  Fe  Fe2       1.0  0.73721  0.18411  0.90492  1.0000
  Fe  Fe3       1.0  0.00000  1.00000  0.50000  1.0000
