data_image0
_chemical_formula_structural       Li4OS4Fe3
_chemical_formula_sum              "Li4 O1 S4 Fe3"
_cell_length_a       3.94395
_cell_length_b       7.06992
_cell_length_c       7.69779
_cell_angle_alpha    81.5109
_cell_angle_beta     75.1642
_cell_angle_gamma    73.8102

_space_group_name_H-M_alt    "P 1"
_space_group_IT_number       1

loop_
  _space_group_symop_operation_xyz
  'x, y, z'

loop_
  _atom_site_type_symbol
  _atom_site_label
  _atom_site_symmetry_multiplicity
  _atom_site_fract_x
  _atom_site_fract_y
  _atom_site_fract_z
  _atom_site_occupancy
  Li  Li1       1.0  0.61778  0.95391  0.31084  1.0000
  Li  Li2       1.0  0.38222  0.04609  0.68916  1.0000
  Li  Li3       1.0  0.13040  0.21546  0.02373  1.0000
  Li  Li4       1.0  0.86960  0.78454  0.97627  1.0000
  O   O1        1.0  0.00000  0.50000  0.00000  1.0000
  S   S1        1.0  0.41037  0.29340  0.38567  1.0000
  S   S2        1.0  0.58963  0.70660  0.61433  1.0000
  S   S3        1.0  0.24463  0.84703  0.16386  1.0000
  S   S4        1.0  0.75537  0.15297  0.83614  1.0000
  Fe  Fe1       1.0  0.20777  0.64902  0.43562  1.0000
  Fe  Fe2       1.0  0.79223  0.35098  0.56438  1.0000
  Fe  Fe3       1.0  0.50000  0.50000  0.00000  1.0000
