data_image0
_chemical_formula_structural       Li3OS2Fe
_chemical_formula_sum              "Li3 O1 S2 Fe1"
_cell_length_a       3.75184
_cell_length_b       4.02404
_cell_length_c       6.87575
_cell_angle_alpha    107.015
_cell_angle_beta     105.833
_cell_angle_gamma    90.0002

_space_group_name_H-M_alt    "P 1"
_space_group_IT_number       1

loop_
  _space_group_symop_operation_xyz
  'x, y, z'

loop_
  _atom_site_type_symbol
  _atom_site_label
  _atom_site_symmetry_multiplicity
  _atom_site_fract_x
  _atom_site_fract_y
  _atom_site_fract_z
  _atom_site_occupancy
  Li  Li1       1.0  0.36417  0.00464  0.66971  1.0000
  Li  Li2       1.0  0.69446  0.33493  0.33029  1.0000
  Li  Li3       1.0  0.03873  0.16997  0.00000  1.0000
  O   O1        1.0  0.53856  0.17012  0.00000  1.0000
  S   S1        1.0  0.90255  0.53328  0.72605  1.0000
  S   S2        1.0  0.17650  0.80723  0.27395  1.0000
  Fe  Fe1       1.0  0.53989  0.67004  0.00000  1.0000
