data_image0
_chemical_formula_structural       Li3OS2Fe
_chemical_formula_sum              "Li3 O1 S2 Fe1"
_cell_length_a       3.75372
_cell_length_b       4.02664
_cell_length_c       6.85868
_cell_angle_alpha    73.1003
_cell_angle_beta     74.205
_cell_angle_gamma    89.9623

_space_group_name_H-M_alt    "P 1"
_space_group_IT_number       1

loop_
  _space_group_symop_operation_xyz
  'x, y, z'

loop_
  _atom_site_type_symbol
  _atom_site_label
  _atom_site_symmetry_multiplicity
  _atom_site_fract_x
  _atom_site_fract_y
  _atom_site_fract_z
  _atom_site_occupancy
  Li  Li1       1.0  0.65781  0.66628  0.66918  1.0000
  Li  Li2       1.0  0.34219  0.33372  0.33082  1.0000
  Li  Li3       1.0  0.00000  0.50000  0.00000  1.0000
  O   O1        1.0  0.50000  0.50000  0.00000  1.0000
  S   S1        1.0  0.13636  0.13451  0.72625  1.0000
  S   S2        1.0  0.86364  0.86549  0.27375  1.0000
  Fe  Fe1       1.0  0.50000  0.00000  0.00000  1.0000
