data_image0
_chemical_formula_structural       Li3OS2Fe
_chemical_formula_sum              "Li3 O1 S2 Fe1"
_cell_length_a       3.74669
_cell_length_b       4.02288
_cell_length_c       6.87731
_cell_angle_alpha    107.006
_cell_angle_beta     105.691
_cell_angle_gamma    90

_space_group_name_H-M_alt    "P 1"
_space_group_IT_number       1

loop_
  _space_group_symop_operation_xyz
  'x, y, z'

loop_
  _atom_site_type_symbol
  _atom_site_label
  _atom_site_symmetry_multiplicity
  _atom_site_fract_x
  _atom_site_fract_y
  _atom_site_fract_z
  _atom_site_occupancy
  Li  Li1       1.0  0.15296  0.98080  0.33005  1.0000
  Li  Li2       1.0  0.84704  0.65075  0.66995  1.0000
  Li  Li3       1.0  0.50000  0.81649  1.00000  1.0000
  O   O1        1.0  1.00000  0.81641  1.00000  1.0000
  S   S1        1.0  0.63713  0.45351  0.27424  1.0000
  S   S2        1.0  0.36287  0.17927  0.72576  1.0000
  Fe  Fe1       1.0  0.00000  0.31629  0.00000  1.0000
