data_image0
_chemical_formula_structural       Li4O4SFe2
_chemical_formula_sum              "Li4 O4 S1 Fe2"
_cell_length_a       3.72374
_cell_length_b       6.04291
_cell_length_c       7.3517
_cell_angle_alpha    113.504
_cell_angle_beta     90.0102
_cell_angle_gamma    107.932

_space_group_name_H-M_alt    "P 1"
_space_group_IT_number       1

loop_
  _space_group_symop_operation_xyz
  'x, y, z'

loop_
  _atom_site_type_symbol
  _atom_site_label
  _atom_site_symmetry_multiplicity
  _atom_site_fract_x
  _atom_site_fract_y
  _atom_site_fract_z
  _atom_site_occupancy
  Li  Li1       1.0  0.18565  0.87108  0.40406  1.0000
  Li  Li2       1.0  0.81435  0.12892  0.59594  1.0000
  Li  Li3       1.0  0.49097  0.48186  0.70479  1.0000
  Li  Li4       1.0  0.50903  0.51814  0.29521  1.0000
  O   O1        1.0  0.67144  0.84273  0.87868  1.0000
  O   O2        1.0  0.32856  0.15727  0.12132  1.0000
  O   O3        1.0  0.31830  0.13696  0.68438  1.0000
  O   O4        1.0  0.68170  0.86304  0.31562  1.0000
  S   S1        1.0  0.00000  0.50000  0.50000  1.0000
  Fe  Fe1       1.0  0.78281  0.06573  0.17619  1.0000
  Fe  Fe2       1.0  0.21719  0.93427  0.82381  1.0000
