data_image0
_chemical_formula_structural       Li4O4SFe2
_chemical_formula_sum              "Li4 O4 S1 Fe2"
_cell_length_a       5.10855
_cell_length_b       5.82818
_cell_length_c       6.30938
_cell_angle_alpha    108.306
_cell_angle_beta     90
_cell_angle_gamma    115.993

_space_group_name_H-M_alt    "P 1"
_space_group_IT_number       1

loop_
  _space_group_symop_operation_xyz
  'x, y, z'

loop_
  _atom_site_type_symbol
  _atom_site_label
  _atom_site_symmetry_multiplicity
  _atom_site_fract_x
  _atom_site_fract_y
  _atom_site_fract_z
  _atom_site_occupancy
  Li  Li1       1.0  0.21092  0.43409  0.10656  1.0000
  Li  Li2       1.0  0.77683  0.56591  0.89344  1.0000
  Li  Li3       1.0  0.29642  0.97363  0.25742  1.0000
  Li  Li4       1.0  0.32279  0.02637  0.74258  1.0000
  O   O1        1.0  0.02008  0.66192  0.66611  1.0000
  O   O2        1.0  0.35816  0.33808  0.33389  1.0000
  O   O3        1.0  0.97913  0.61897  0.16903  1.0000
  O   O4        1.0  0.36016  0.38103  0.83097  1.0000
  S   S1        1.0  0.69319  0.00000  0.50000  1.0000
  Fe  Fe1       1.0  0.15949  0.38983  0.59494  1.0000
  Fe  Fe2       1.0  0.76966  0.61017  0.40506  1.0000
