data_image0
_chemical_formula_structural       Li8O8S2Fe4
_chemical_formula_sum              "Li8 O8 S2 Fe4"
_cell_length_a       3.4992
_cell_length_b       7.37142
_cell_length_c       10.7379
_cell_angle_alpha    89.0924
_cell_angle_beta     89.973
_cell_angle_gamma    89.9682

_space_group_name_H-M_alt    "P 1"
_space_group_IT_number       1

loop_
  _space_group_symop_operation_xyz
  'x, y, z'

loop_
  _atom_site_type_symbol
  _atom_site_label
  _atom_site_symmetry_multiplicity
  _atom_site_fract_x
  _atom_site_fract_y
  _atom_site_fract_z
  _atom_site_occupancy
  Li  Li1       1.0  0.25075  0.41055  0.93847  1.0000
  Li  Li2       1.0  0.74925  0.58945  0.06153  1.0000
  Li  Li3       1.0  0.75023  0.35560  0.42322  1.0000
  Li  Li4       1.0  0.24977  0.64440  0.57678  1.0000
  Li  Li5       1.0  0.75076  0.34119  0.72735  1.0000
  Li  Li6       1.0  0.24924  0.65881  0.27265  1.0000
  Li  Li7       1.0  0.25007  0.90052  0.04673  1.0000
  Li  Li8       1.0  0.74993  0.09948  0.95327  1.0000
  O   O1        1.0  0.74857  0.22217  0.27179  1.0000
  O   O2        1.0  0.25143  0.77783  0.72821  1.0000
  O   O3        1.0  0.24945  0.51127  0.13238  1.0000
  O   O4        1.0  0.75055  0.48873  0.86762  1.0000
  O   O5        1.0  0.24996  0.16915  0.01429  1.0000
  O   O6        1.0  0.75004  0.83085  0.98571  1.0000
  O   O7        1.0  0.75096  0.08092  0.77250  1.0000
  O   O8        1.0  0.24904  0.91908  0.22750  1.0000
  S   S1        1.0  0.25018  0.28646  0.56748  1.0000
  S   S2        1.0  0.74982  0.71354  0.43252  1.0000
  Fe  Fe1       1.0  0.75120  0.73550  0.82749  1.0000
  Fe  Fe2       1.0  0.24880  0.26450  0.17251  1.0000
  Fe  Fe3       1.0  0.74898  0.95802  0.29614  1.0000
  Fe  Fe4       1.0  0.25102  0.04198  0.70386  1.0000
