TITL LFSO-Li2Fe3S2O2-201024-032344-9354ec -0.0161 182.686424 -4.46941381E+003 12.0000 12.1927 9 (R3) n - 1
REM
REM Run started: Sat, 24 Oct 2020 05:13:50 +0100 in /lustre/scratch/uccabz1/launch_tmp/launcher_2020-10-24-02-23-43-120204
REM CASTEP 20.1 from code version af48c487+ pr-geom-scf-spinfix Tue Jun 2 15:39:59 2020 +0100
REM Functional Perdew Burke Ernzerhof Relativity Koelling-Harmon Dispersion off
REM Cut-off 340.0000 eV Grid scale 1.7500 Gmax 16.5316 1/A FBSC none
REM MP grid 4 4 4 Offset 0.000 0.000 0.000 No. kpts 12 Spacing 0.07
REM Total runtime: 7244.4 s
REM Overall efficiency: 71.7 %
REM
REM
REM
REM compiler GCC version 4.9.2
REM options -cpp -iprefix /lustre/shared/ucl/apps/gcc/4.9.2/bin/../lib/gcc/x86_64-unknown-linux-gnu/4.9.2/ -mtune=corei7 -march=x86-64 -g -Og
REM COMMAND_LINE
REM seed -1114122221 -1909013617 178947608 -1553045172 2037673935 530235792 -1904796200 1097546647 1691662635 -1247039835 -1924822585 -2089702131
REM
REM S 3|1.8|5|6|7|30:31:32(qc=5)
REM O 2|1.5|12|13|15|20:21(qc=5)
REM Li 1|1.3|8|9|10|10U:20(qc=5)
REM Fe 3|2.2|2.0|1.0|8|9|10|40:41:32(qc=5)
REM Fe d:4.0 
REM
CELL 1.54180    7.46735    7.46735    7.46735   44.02706   44.02706   44.02706
LATT -1
SFAC Li O  S  Fe 
Li     1  0.2851110000000  0.2851110000000  0.2851110000000 1.0  -0.03
Li     1 -0.3741560000000 -0.3741560000000 -0.3741560000000 1.0  -0.01
O      2  0.5301390000000  0.5301390000000  0.5301390000000 1.0   0.18
O      2  0.1935110000000  0.1935110000000  0.1935110000000 1.0   0.17
S      3 -0.2465960000000 -0.2465960000000 -0.2465960000000 1.0   0.12
S      3 -0.0652340000000 -0.0652340000000 -0.0652340000000 1.0   0.17
Fe     4 -0.1621920000000  0.1483330000000 -0.4664490000000 1.0   3.80
Fe     4  0.1483330000000 -0.4664490000000 -0.1621920000000 1.0   3.80
Fe     4 -0.4664490000000 -0.1621920000000  0.1483330000000 1.0   3.80
END
