TITL LFSO-Li3FeS2O-201023-064306-6cc57e -0.0135 108.532679 -2.50772321E+003 3.00001 3.81183 7 (P2) n - 1
REM
REM Run started: Fri, 23 Oct 2020 07:18:28 +0100 in /lustre/scratch/uccabz1/launch_tmp/launcher_2020-10-23-05-43-04-554716
REM CASTEP 20.1 from code version af48c487+ pr-geom-scf-spinfix Tue Jun 2 15:39:59 2020 +0100
REM Functional Perdew Burke Ernzerhof Relativity Koelling-Harmon Dispersion off
REM Cut-off 340.0000 eV Grid scale 1.7500 Gmax 16.5316 1/A FBSC none
REM MP grid 4 4 3 Offset 0.000 0.000 0.000 No. kpts 12 Spacing 0.07
REM Total runtime: 2387 s
REM Overall efficiency: 89.875 %
REM
REM
REM
REM compiler GCC version 4.9.2
REM options -cpp -iprefix /lustre/shared/ucl/apps/gcc/4.9.2/bin/../lib/gcc/x86_64-unknown-linux-gnu/4.9.2/ -mtune=corei7 -march=x86-64 -g -Og
REM COMMAND_LINE
REM seed 793332882 429381227 24028655 -429185287 397057862 1912001548 -30271805 217374414 842386457 -2037527765 -1019118260 367776651
REM
REM S 3|1.8|5|6|7|30:31:32(qc=5)
REM O 2|1.5|12|13|15|20:21(qc=5)
REM Li 1|1.3|8|9|10|10U:20(qc=5)
REM Fe 3|2.2|2.0|1.0|8|9|10|40:41:32(qc=5)
REM Fe d:4.0 
REM
CELL 1.54180    3.74926    3.91682    7.74586   72.58075   90.00000   90.00000
LATT -1
SFAC Li O  S  Fe 
Li     1  0.2770480000000  0.3402020000000  0.2811230000000 1.0  -0.00
Li     1  0.2770480000000 -0.3402020000000 -0.2811230000000 1.0  -0.00
Li     1 -0.1748310000000  0.5000000000000 -0.0000000000000 1.0  -0.05
O      2  0.3276780000000  0.5000000000000 -0.0000000000000 1.0   0.04
S      3 -0.1651150000000 -0.1358300000000  0.2398500000000 1.0  -0.20
S      3 -0.1651150000000  0.1358300000000 -0.2398500000000 1.0  -0.20
Fe     4 -0.6732420000000  0.0000000000000 -0.0000000000000 1.0   3.41
END
