TITL LFSO-Li6FeSO3-201028-070054-f9769e 0.0550 144.382186 -3.67809818E+003 3.99930 4.10727 11 (Cm) n - 1
REM
REM Run started: Wed, 28 Oct 2020 07:42:40 +0000 in /lustre/scratch/uccabz1/launch_tmp/launcher_2020-10-28-07-00-52-440990
REM CASTEP 20.1 from code version af48c487+ pr-geom-scf-spinfix Tue Jun 2 15:39:59 2020 +0100
REM Functional Perdew Burke Ernzerhof Relativity Koelling-Harmon Dispersion off
REM Cut-off 340.0000 eV Grid scale 1.7500 Gmax 16.5316 1/A FBSC none
REM MP grid 4 4 2 Offset 0.000 0.000 0.000 No. kpts 10 Spacing 0.07
REM Total runtime: 2530.86 s
REM Overall efficiency: 69.75 %
REM
REM
REM
REM compiler GCC version 4.9.2
REM options -cpp -iprefix /lustre/shared/ucl/apps/gcc/4.9.2/bin/../lib/gcc/x86_64-unknown-linux-gnu/4.9.2/ -mtune=corei7 -march=x86-64 -g -Og
REM COMMAND_LINE
REM seed 822301576 216265476 174657667 363049992 -1216305094 -1348932245 1680347284 882664483 391365545 1369409098 548855160 -878179813
REM
REM S 3|1.8|5|6|7|30:31:32(qc=5)
REM O 2|1.5|12|13|15|20:21(qc=5)
REM Li 1|1.3|8|9|10|10U:20(qc=5)
REM Fe 3|2.2|2.0|1.0|8|9|10|40:41:32(qc=5)
REM Fe d:4.0 
REM
CELL 1.54180    4.07811    4.07811    9.34022  104.02305  104.02305   95.15893
LATT -1
SFAC Li O  S  Fe 
Li     1 -0.2044110000000  0.1282850000000  0.5057840000000 1.0  -0.04
Li     1  0.1282850000000 -0.2044110000000  0.5057840000000 1.0  -0.04
Li     1 -0.3464720000000  0.1669670000000 -0.1308000000000 1.0  -0.05
Li     1  0.1669670000000 -0.3464720000000 -0.1308000000000 1.0  -0.05
Li     1 -0.1732270000000  0.3827200000000  0.2125010000000 1.0   0.01
Li     1  0.3827200000000 -0.1732270000000  0.2125010000000 1.0   0.01
O      2 -0.4545950000000  0.0468160000000 -0.3516820000000 1.0   0.16
O      2  0.0468160000000 -0.4545950000000 -0.3516820000000 1.0   0.16
O      2 -0.1430380000000 -0.1430380000000  0.3238360000000 1.0   0.00
S      3  0.2362460000000  0.2362460000000  0.0255380000000 1.0   0.01
Fe     4  0.5491780000000  0.5491780000000 -0.3451390000000 1.0   3.83
END
