TITL LFSO-Li2Fe3S3O-201026-145036-f4c66a 0.0061 175.250106 -4.33213998E+003 10.0019 10.2978 9 (Pmm2) n - 1
REM
REM Run started: Mon, 26 Oct 2020 16:09:21 +0000 in /lustre/scratch/uccabz1/launch_tmp/launcher_2020-10-26-14-50-34-915034
REM CASTEP 20.1 from code version af48c487+ pr-geom-scf-spinfix Tue Jun 2 15:39:59 2020 +0100
REM Functional Perdew Burke Ernzerhof Relativity Koelling-Harmon Dispersion off
REM Cut-off 340.0000 eV Grid scale 1.7500 Gmax 16.5316 1/A FBSC none
REM MP grid 5 4 2 Offset 0.000 0.000 0.000 No. kpts 6 Spacing 0.07
REM Total runtime: 5863.94 s
REM Overall efficiency: 93 %
REM
REM
REM
REM compiler GCC version 4.9.2
REM options -cpp -iprefix /lustre/shared/ucl/apps/gcc/4.9.2/bin/../lib/gcc/x86_64-unknown-linux-gnu/4.9.2/ -mtune=corei7 -march=x86-64 -g -Og
REM COMMAND_LINE
REM seed 108727175 1066310841 -667165601 -941282153 -1309798869 1932439106 2093866271 -1168891209 -1301750553 -488402350 -45829403 -31475183
REM
REM S 3|1.8|5|6|7|30:31:32(qc=5)
REM O 2|1.5|12|13|15|20:21(qc=5)
REM Li 1|1.3|8|9|10|10U:20(qc=5)
REM Fe 3|2.2|2.0|1.0|8|9|10|40:41:32(qc=5)
REM Fe d:4.0 
REM
CELL 1.54180    3.88569    4.44490   10.14677   90.00000   90.00000   90.00000
LATT -1
SFAC Li O  S  Fe 
Li     1 -0.5000000000000  0.1060900000000 -0.1294800000000 1.0  -0.04
Li     1 -0.5000000000000  0.1060900000000  0.1294800000000 1.0  -0.04
O      2 -0.0000000000000  0.0838080000000  0.0000000000000 1.0   0.00
S      3 -0.0000000000000  0.1317130000000 -0.3103730000000 1.0   0.06
S      3 -0.0000000000000  0.1317130000000  0.3103730000000 1.0   0.06
S      3 -0.0000000000000  0.4679120000000  0.0000000000000 1.0  -0.02
Fe     4 -0.0000000000000 -0.3597420000000  0.2396530000000 1.0   3.25
Fe     4 -0.0000000000000 -0.3597420000000 -0.2396530000000 1.0   3.25
Fe     4 -0.0000000000000  0.4191610000000 -0.5000000000000 1.0   3.48
END
