TITL LFSO-Li4Fe2S3O-201026-211938-d10490 -0.0291 227.543256 -3.87233885E+003 8.00003 8.08749 10 (R3) n - 1
REM
REM Run started: Mon, 26 Oct 2020 22:59:47 +0000 in /lustre/scratch/uccabz1/launch_tmp/launcher_2020-10-26-21-19-37-064086
REM CASTEP 20.1 from code version af48c487+ pr-geom-scf-spinfix Tue Jun 2 15:39:59 2020 +0100
REM Functional Perdew Burke Ernzerhof Relativity Koelling-Harmon Dispersion off
REM Cut-off 340.0000 eV Grid scale 1.7500 Gmax 16.5316 1/A FBSC none
REM MP grid 3 3 3 Offset 0.000 0.000 0.000 No. kpts 6 Spacing 0.07
REM Total runtime: 6556.4 s
REM Overall efficiency: 96.1429 %
REM
REM
REM
REM compiler GCC version 4.9.2
REM options -cpp -iprefix /lustre/shared/ucl/apps/gcc/4.9.2/bin/../lib/gcc/x86_64-unknown-linux-gnu/4.9.2/ -mtune=corei7 -march=x86-64 -g -Og
REM COMMAND_LINE
REM seed 1722461984 -1348082956 56820113 1046603836 1145979511 1920468345 -1768373162 -1824036383 -979047640 1769577181 514951931 121351314
REM
REM S 3|1.8|5|6|7|30:31:32(qc=5)
REM O 2|1.5|12|13|15|20:21(qc=5)
REM Li 1|1.3|8|9|10|10U:20(qc=5)
REM Fe 3|2.2|2.0|1.0|8|9|10|40:41:32(qc=5)
REM Fe d:4.0 
REM
CELL 1.54180    6.98723    6.98723    6.98723   57.53557   57.53557   57.53557
LATT -1
SFAC Li O  S  Fe 
Li     1 -0.3451100000000  0.2040800000000  0.4537830000000 1.0  -0.03
Li     1  0.4537830000000 -0.3451100000000  0.2040800000000 1.0  -0.03
Li     1  0.2040800000000  0.4537830000000 -0.3451100000000 1.0  -0.03
Li     1 -0.0166390000000 -0.0166390000000 -0.0166390000000 1.0   0.03
O      2 -0.5025050000000 -0.5025050000000 -0.5025050000000 1.0   0.14
S      3  0.3502950000000  0.0018310000000 -0.3349200000000 1.0   0.13
S      3 -0.3349200000000  0.3502950000000  0.0018310000000 1.0   0.13
S      3  0.0018310000000 -0.3349200000000  0.3502950000000 1.0   0.13
Fe     4  0.3033470000000  0.3033470000000  0.3033470000000 1.0   3.67
Fe     4 -0.3916530000000 -0.3916530000000 -0.3916530000000 1.0   3.85
END
