TITL LFSO-Li4Fe2S3O-201026-150100-4c1544 0.0441 170.095771 -3.87436766E+003 8.00000 8.10861 10 (P-1) n - 1
REM
REM Run started: Mon, 26 Oct 2020 17:37:33 +0000 in /scratch/scratch/uccabz1/launch_tmp/launcher_2020-10-26-15-00-58-374769
REM CASTEP 19.11| from code version Version unavailable
REM Functional Perdew Burke Ernzerhof Relativity Koelling-Harmon Dispersion off
REM Cut-off 340.0000 eV Grid scale 1.7500 Gmax 16.5316 1/A FBSC none
REM MP grid 5 3 2 Offset 0.000 0.000 0.000 No. kpts 15 Spacing 0.07
REM Total runtime: 10510.9 s
REM Overall efficiency: 74.375 %
REM
REM
REM
REM compiler GCC version 4.9.2
REM options -cpp -iprefix /scratch/UCL/applications/gcc/4.9.2/bin/../lib/gcc/x86_64-unknown-linux-gnu/4.9.2/ -mtune=corei7 -march=x86-64 -g -O2
REM COMMAND_LINE
REM seed 678103985 -439740512 -1503542641 1901849837 -182381525 -307061907 -1149823723 -1273006089 -622089976 -367260087 -583921521 1789288761
REM
REM S 3|1.8|5|6|7|30:31:32(qc=5)
REM O 2|1.5|12|13|15|20:21(qc=5)
REM Li 1|1.3|8|9|10|10U:20(qc=5)
REM Fe 3|2.2|2.0|1.0|8|9|10|40:41:32(qc=5)
REM Fe d:4.0 
REM
CELL 1.54180    3.83367    5.93621    9.94770   89.37502   48.76373   91.30055
LATT -1
SFAC Li O  S  Fe 
Li     1 -0.5554230000000 -0.2645050000000 -0.4594110000000 1.0  -0.02
Li     1  0.5554230000000  0.2645050000000  0.4594110000000 1.0  -0.02
Li     1  0.3426030000000 -0.2982570000000 -0.0968940000000 1.0  -0.04
Li     1 -0.3426030000000  0.2982570000000  0.0968940000000 1.0  -0.04
O      2  0.0000000000000  0.0000000000000  0.0000000000000 1.0   0.19
S      3  0.0409880000000 -0.5538500000000 -0.2282860000000 1.0   0.07
S      3 -0.0409880000000  0.5538500000000  0.2282860000000 1.0   0.07
S      3  0.0000000000000  0.0000000000000 -0.5000000000000 1.0   0.05
Fe     4 -0.4910900000000  0.1783130000000 -0.2098130000000 1.0   3.88
Fe     4  0.4910900000000 -0.1783130000000  0.2098130000000 1.0   3.88
END
