TITL LFSO-Li2FeSO-201025-130128-0837e3 -0.0072 142.627498 -4.00788667E+003 8.00000 8.07515 10 (P21) n - 1
REM
REM Run started: Sun, 25 Oct 2020 14:40:04 +0000 in /lustre/scratch/uccabz1/launch_tmp/launcher_2020-10-25-13-01-27-364926
REM CASTEP 20.1 from code version af48c487+ pr-geom-scf-spinfix Tue Jun 2 15:39:59 2020 +0100
REM Functional Perdew Burke Ernzerhof Relativity Koelling-Harmon Dispersion off
REM Cut-off 340.0000 eV Grid scale 1.7500 Gmax 16.5316 1/A FBSC none
REM MP grid 5 2 3 Offset 0.000 0.000 0.000 No. kpts 9 Spacing 0.07
REM Total runtime: 6320.69 s
REM Overall efficiency: 79.4444 %
REM
REM
REM
REM compiler GCC version 4.9.2
REM options -cpp -iprefix /lustre/shared/ucl/apps/gcc/4.9.2/bin/../lib/gcc/x86_64-unknown-linux-gnu/4.9.2/ -mtune=corei7 -march=x86-64 -g -Og
REM COMMAND_LINE
REM seed 1972641511 993443366 1482786391 -1235743582 382743284 -1443130527 -602462947 2111880721 429417692 -1407252175 834329103 -1795277788
REM
REM S 3|1.8|5|6|7|30:31:32(qc=5)
REM O 2|1.5|12|13|15|20:21(qc=5)
REM Li 1|1.3|8|9|10|10U:20(qc=5)
REM Fe 3|2.2|2.0|1.0|8|9|10|40:41:32(qc=5)
REM Fe d:4.0 
REM
CELL 1.54180    3.31652    7.31725    6.19173  108.33975   90.00000   90.00000
LATT -1
SFAC Li O  S  Fe 
Li     1  0.3055180000000  0.0977130000000 -0.0825660000000 1.0  -0.01
Li     1 -0.1944820000000 -0.0977130000000  0.0825660000000 1.0  -0.01
Li     1 -0.4098220000000  0.4216520000000  0.1603440000000 1.0  -0.03
Li     1  0.0901780000000 -0.4216520000000 -0.1603440000000 1.0  -0.03
O      2 -0.3795530000000  0.1667460000000  0.2020750000000 1.0   0.13
O      2  0.1204470000000 -0.1667460000000 -0.2020750000000 1.0   0.13
S      3  0.0979440000000 -0.3201260000000  0.2680010000000 1.0   0.14
S      3 -0.4020560000000  0.3201260000000 -0.2680010000000 1.0   0.14
Fe     4  0.0949880000000  0.2225600000000  0.4270700000000 1.0   3.78
Fe     4 -0.4050120000000 -0.2225600000000 -0.4270700000000 1.0   3.78
END
