TITL LFSO-Li6FeSO3-201028-084129-6a7e1a -0.0187 141.516331 -3.67858307E+003 4.00000 4.07254 11 (Pm) n - 1
REM
REM Run started: Wed, 28 Oct 2020 09:03:05 +0000 in /scratch/scratch/uccabz1/launch_tmp/launcher_2020-10-28-08-41-28-163117
REM CASTEP 19.11| from code version Version unavailable
REM Functional Perdew Burke Ernzerhof Relativity Koelling-Harmon Dispersion off
REM Cut-off 340.0000 eV Grid scale 1.7500 Gmax 16.5316 1/A FBSC none
REM MP grid 5 2 3 Offset 0.000 0.000 0.000 No. kpts 8 Spacing 0.07
REM Total runtime: 1362.55 s
REM Overall efficiency: 89.3333 %
REM
REM
REM
REM compiler GCC version 4.9.2
REM options -cpp -iprefix /scratch/UCL/applications/gcc/4.9.2/bin/../lib/gcc/x86_64-unknown-linux-gnu/4.9.2/ -mtune=corei7 -march=x86-64 -g -O2
REM COMMAND_LINE
REM seed 566513038 1790587067 -1118168446 1921074630 1450776972 1313730051 1735745243 -398446822 -1534865860 -470879366 1997783187 1592320390
REM
REM S 3|1.8|5|6|7|30:31:32(qc=5)
REM O 2|1.5|12|13|15|20:21(qc=5)
REM Li 1|1.3|8|9|10|10U:20(qc=5)
REM Fe 3|2.2|2.0|1.0|8|9|10|40:41:32(qc=5)
REM Fe d:4.0 
REM
CELL 1.54180    3.42531    7.34494    5.66730   90.00000   82.99138   90.00000
LATT -1
SFAC Li O  S  Fe 
Li     1 -0.5723580000000 -0.3476460000000  0.0858870000000 1.0   0.01
Li     1 -0.5723580000000  0.3476460000000  0.0858870000000 1.0   0.01
Li     1  0.0188700000000 -0.3299830000000 -0.2792770000000 1.0  -0.01
Li     1  0.0188700000000  0.3299830000000 -0.2792770000000 1.0  -0.01
Li     1 -0.1457330000000 -0.1990870000000  0.3453740000000 1.0  -0.02
Li     1 -0.1457330000000  0.1990870000000  0.3453740000000 1.0  -0.02
O      2  0.3330470000000 -0.2368560000000 -0.5437940000000 1.0   0.09
O      2  0.3330470000000  0.2368560000000 -0.5437940000000 1.0   0.09
O      2 -0.0479160000000  0.5000000000000 -0.0184340000000 1.0   0.00
S      3 -0.2149010000000  0.0000000000000 -0.0545050000000 1.0   0.08
Fe     4  0.3272710000000  0.0000000000000 -0.3732960000000 1.0   3.77
END
