TITL LFSO-Li5FeS2O2-201025-213058-69a67b -0.0341 178.246122 -3.34446646E+003 3.00000 3.48342 10 (Cm) n - 1
REM
REM Run started: Sun, 25 Oct 2020 23:51:46 +0000 in /scratch/scratch/uccabz1/launch_tmp/launcher_2020-10-25-21-30-57-090165
REM CASTEP 19.11| from code version Version unavailable
REM Functional Perdew Burke Ernzerhof Relativity Koelling-Harmon Dispersion off
REM Cut-off 340.0000 eV Grid scale 1.7500 Gmax 16.5316 1/A FBSC none
REM MP grid 5 3 3 Offset 0.000 0.000 0.000 No. kpts 16 Spacing 0.07
REM Total runtime: 9296.31 s
REM Overall efficiency: 93.8333 %
REM
REM
REM
REM compiler GCC version 4.9.2
REM options -cpp -iprefix /scratch/UCL/applications/gcc/4.9.2/bin/../lib/gcc/x86_64-unknown-linux-gnu/4.9.2/ -mtune=corei7 -march=x86-64 -g -O2
REM COMMAND_LINE
REM seed 304102786 -744679113 -1519562417 -596405084 -1489962204 -291873091 851938534 -1881213800 1824856535 -1171564455 1247266601 72003920
REM
REM S 3|1.8|5|6|7|30:31:32(qc=5)
REM O 2|1.5|12|13|15|20:21(qc=5)
REM Li 1|1.3|8|9|10|10U:20(qc=5)
REM Fe 3|2.2|2.0|1.0|8|9|10|40:41:32(qc=5)
REM Fe d:4.0 
REM
CELL 1.54180    3.84699    7.39986    7.39986   74.84058   67.53694   67.53694
LATT -1
SFAC Li O  S  Fe 
Li     1  0.2233390000000 -0.0903080000000  0.2850460000000 1.0   0.03
Li     1  0.2233390000000  0.2850460000000 -0.0903080000000 1.0   0.03
Li     1  0.0045830000000  0.1186830000000  0.6908420000000 1.0  -0.02
Li     1  0.0045830000000  0.6908420000000  0.1186830000000 1.0  -0.02
Li     1  0.2823400000000  0.5958200000000  0.5958200000000 1.0  -0.04
O      2 -0.5140790000000 -0.2277520000000  0.0782270000000 1.0   0.04
O      2 -0.5140790000000  0.0782270000000 -0.2277520000000 1.0   0.04
S      3 -0.3592610000000  0.4758650000000 -0.1666100000000 1.0  -0.07
S      3 -0.3592610000000 -0.1666100000000  0.4758650000000 1.0  -0.07
Fe     4  0.5676290000000 -0.1867260000000 -0.1867260000000 1.0   3.09
END
