TITL LFSO-Li6FeSO3-201027-211058-32bb4f -0.0033 116.481783 -3.67890717E+003 4.00000 4.05687 11 (P-1) n - 1
REM
REM Run started: Tue, 27 Oct 2020 22:15:15 +0000 in /scratch/scratch/uccabz1/launch_tmp/launcher_2020-10-27-21-10-56-841416
REM CASTEP 19.11| from code version Version unavailable
REM Functional Perdew Burke Ernzerhof Relativity Koelling-Harmon Dispersion off
REM Cut-off 340.0000 eV Grid scale 1.7500 Gmax 16.5316 1/A FBSC none
REM MP grid 5 3 3 Offset 0.000 0.000 0.000 No. kpts 23 Spacing 0.07
REM Total runtime: 4320.67 s
REM Overall efficiency: 79.3333 %
REM
REM
REM
REM compiler GCC version 4.9.2
REM options -cpp -iprefix /scratch/UCL/applications/gcc/4.9.2/bin/../lib/gcc/x86_64-unknown-linux-gnu/4.9.2/ -mtune=corei7 -march=x86-64 -g -O2
REM COMMAND_LINE
REM seed -762965288 713121366 1871261560 -1467375896 -1848733375 -1118762590 203486728 -1328349735 734024103 -1389126793 1724507571 -739814167
REM
REM S 3|1.8|5|6|7|30:31:32(qc=5)
REM O 2|1.5|12|13|15|20:21(qc=5)
REM Li 1|1.3|8|9|10|10U:20(qc=5)
REM Fe 3|2.2|2.0|1.0|8|9|10|40:41:32(qc=5)
REM Fe d:4.0 
REM
CELL 1.54180    3.97824    6.97497    6.33939  120.34841  105.29741   50.38121
LATT -1
SFAC Li O  S  Fe 
Li     1  0.0232030000000  0.3625100000000  0.0703730000000 1.0  -0.03
Li     1 -0.0232030000000 -0.3625100000000 -0.0703730000000 1.0  -0.03
Li     1 -0.1315150000000  0.1073560000000  0.2121940000000 1.0  -0.03
Li     1  0.1315150000000 -0.1073560000000 -0.2121940000000 1.0  -0.03
Li     1 -0.6275690000000 -0.3823920000000  0.2702580000000 1.0  -0.01
Li     1  0.6275690000000  0.3823920000000 -0.2702580000000 1.0  -0.01
O      2  0.4577110000000 -0.2643120000000  0.0323650000000 1.0   0.04
O      2 -0.4577110000000  0.2643120000000 -0.0323650000000 1.0   0.04
O      2  0.0000000000000  0.0000000000000  0.5000000000000 1.0   0.12
S      3  0.0000000000000 -0.5000000000000 -0.5000000000000 1.0   0.06
Fe     4  0.5000000000000  0.0000000000000 -0.5000000000000 1.0   3.89
END
