TITL LFSO-Li2Fe3S2O2-201024-044036-1ba1d2 -0.0110 170.339835 -4.46978850E+003 11.9984 12.0712 9 (P-1) n - 1
REM
REM Run started: Sat, 24 Oct 2020 07:34:42 +0100 in /lustre/scratch/uccabz1/launch_tmp/launcher_2020-10-24-03-40-34-888840
REM CASTEP 20.1 from code version af48c487+ pr-geom-scf-spinfix Tue Jun 2 15:39:59 2020 +0100
REM Functional Perdew Burke Ernzerhof Relativity Koelling-Harmon Dispersion off
REM Cut-off 340.0000 eV Grid scale 1.7500 Gmax 16.5316 1/A FBSC none
REM MP grid 5 3 2 Offset 0.000 0.000 0.000 No. kpts 15 Spacing 0.07
REM Total runtime: 11983.4 s
REM Overall efficiency: 78.6667 %
REM
REM
REM
REM compiler GCC version 4.9.2
REM options -cpp -iprefix /lustre/shared/ucl/apps/gcc/4.9.2/bin/../lib/gcc/x86_64-unknown-linux-gnu/4.9.2/ -mtune=corei7 -march=x86-64 -g -Og
REM COMMAND_LINE
REM seed -672342982 -762792104 1472202799 1275859676 -2065663046 1884978446 2145083032 -833633607 -866439407 359752448 -848769649 1173280472
REM
REM S 3|1.8|5|6|7|30:31:32(qc=5)
REM O 2|1.5|12|13|15|20:21(qc=5)
REM Li 1|1.3|8|9|10|10U:20(qc=5)
REM Fe 3|2.2|2.0|1.0|8|9|10|40:41:32(qc=5)
REM Fe d:4.0 
REM
CELL 1.54180    3.52743    5.71525    9.87327  100.39207   67.23965  111.73307
LATT -1
SFAC Li O  S  Fe 
Li     1  0.3734900000000  0.5975340000000 -0.0659080000000 1.0  -0.05
Li     1 -0.3734900000000 -0.5975340000000  0.0659080000000 1.0  -0.05
O      2  0.0850280000000  0.2680280000000  0.0295460000000 1.0   0.17
O      2 -0.0850280000000 -0.2680280000000 -0.0295460000000 1.0   0.17
S      3  0.9378740000000  0.1599070000000 -0.3266490000000 1.0   0.15
S      3 -0.9378740000000 -0.1599070000000  0.3266490000000 1.0   0.15
Fe     4 -0.1755960000000 -0.0308720000000  0.1534730000000 1.0   3.85
Fe     4  0.1755960000000  0.0308720000000 -0.1534730000000 1.0   3.85
Fe     4  0.5000000000000  0.0000000000000 -0.5000000000000 1.0   3.76
END
