TITL LFSO-Li2Fe2S2O-201022-030350-768e1f 0.0056 129.659716 -3.16829585E+003 -7.97058 8.05902 7 (P3m1) n - 1
REM
REM Run started: Thu, 22 Oct 2020 03:50:38 +0100 in /lustre/scratch/uccabz1/launch_tmp/launcher_2020-10-22-02-03-49-082093
REM CASTEP 20.1 from code version af48c487+ pr-geom-scf-spinfix Tue Jun 2 15:39:59 2020 +0100
REM Functional Perdew Burke Ernzerhof Relativity Koelling-Harmon Dispersion off
REM Cut-off 340.0000 eV Grid scale 1.7500 Gmax 16.5316 1/A FBSC none
REM MP grid 5 5 2 Offset 0.000 0.000 0.000 No. kpts 7 Spacing 0.07
REM Total runtime: 3506.01 s
REM Overall efficiency: 92.8 %
REM
REM
REM
REM compiler GCC version 4.9.2
REM options -cpp -iprefix /lustre/shared/ucl/apps/gcc/4.9.2/bin/../lib/gcc/x86_64-unknown-linux-gnu/4.9.2/ -mtune=corei7 -march=x86-64 -g -Og
REM COMMAND_LINE
REM seed 213681941 -2114878861 -553790722 -375327482 -998825040 -433129147 119597080 -135502776 -227175502 -1615031950 -1990172435 2036279948
REM
REM S 3|1.8|5|6|7|30:31:32(qc=5)
REM O 2|1.5|12|13|15|20:21(qc=5)
REM Li 1|1.3|8|9|10|10U:20(qc=5)
REM Fe 3|2.2|2.0|1.0|8|9|10|40:41:32(qc=5)
REM Fe d:4.0 
REM
CELL 1.54180    3.82565    3.82565   10.22972   90.00000   90.00000  120.00000
LATT -1
SFAC Li O  S  Fe 
Li     1  0.3333330000000 -0.3333330000000 -0.4540820000000 1.0   0.01
Li     1  0.3333330000000 -0.3333330000000  0.1729420000000 1.0  -0.00
O      2  0.3333330000000 -0.3333330000000  0.3478710000000 1.0  -0.03
S      3  0.3333330000000 -0.3333330000000 -0.0575730000000 1.0  -0.20
S      3 -0.0000000000000  0.0000000000000 -0.3825310000000 1.0  -0.36
Fe     4 -0.0000000000000  0.0000000000000 -0.1634170000000 1.0  -3.75
Fe     4 -0.0000000000000  0.0000000000000  0.3857230000000 1.0  -3.64
END
