TITL LFSO-Li2Fe4S4O-201023-052738-cce6fe 0.0571 423.953832 -1.10048236E+004 32.0000 32.1525 22 (P21/c) n - 1
REM
REM Run started: Sat, 24 Oct 2020 12:09:12 +0100 in /lustre/scratch/uccabz1/launch_tmp/launcher_2020-10-23-04-27-37-100075
REM CASTEP 20.1 from code version af48c487+ pr-geom-scf-spinfix Tue Jun 2 15:39:59 2020 +0100
REM Functional Perdew Burke Ernzerhof Relativity Koelling-Harmon Dispersion off
REM Cut-off 340.0000 eV Grid scale 1.7500 Gmax 16.5316 1/A FBSC none
REM MP grid 5 3 1 Offset 0.000 0.000 0.000 No. kpts 8 Spacing 0.07
REM Total runtime: 122297 s
REM Overall efficiency: 97.5833 %
REM
REM
REM
REM compiler GCC version 4.9.2
REM options -cpp -iprefix /lustre/shared/ucl/apps/gcc/4.9.2/bin/../lib/gcc/x86_64-unknown-linux-gnu/4.9.2/ -mtune=corei7 -march=x86-64 -g -Og
REM COMMAND_LINE
REM seed 563769747 -939455331 -1658554135 -1667315301 -1751257228 -288053029 1503599463 -742917511 -2003292462 -703001772 -608514213 -1112338086
REM
REM S 3|1.8|5|6|7|30:31:32(qc=5)
REM O 2|1.5|12|13|15|20:21(qc=5)
REM Li 1|1.3|8|9|10|10U:20(qc=5)
REM Fe 3|2.2|2.0|1.0|8|9|10|40:41:32(qc=5)
REM Fe d:4.0 
REM
CELL 1.54180    3.92241    7.03733   18.92535   90.00000   90.00000  125.75268
LATT -1
SFAC Li O  S  Fe 
Li     1  0.4363710000000 -0.2580190000000  0.0249010000000 1.0  -0.04
Li     1 -0.4363710000000 -0.2419810000000 -0.4750990000000 1.0  -0.04
Li     1 -0.4363710000000  0.2580190000000 -0.0249010000000 1.0  -0.04
Li     1  0.4363710000000  0.2419810000000  0.4750990000000 1.0  -0.04
O      2 -0.0000000000000  0.0000000000000 -0.0000000000000 1.0   0.17
O      2 -0.0000000000000  0.5000000000000  0.5000000000000 1.0   0.17
S      3  0.1656200000000  0.0690280000000 -0.4052810000000 1.0   0.09
S      3 -0.1656200000000 -0.5690280000000  0.0947190000000 1.0   0.09
S      3 -0.1656200000000 -0.0690280000000  0.4052810000000 1.0   0.09
S      3  0.1656200000000  0.5690280000000 -0.0947190000000 1.0   0.09
S      3 -0.2295610000000 -0.0710890000000  0.1958960000000 1.0   0.08
S      3  0.2295610000000  0.5710890000000 -0.3041040000000 1.0   0.08
S      3  0.2295610000000  0.0710890000000 -0.1958960000000 1.0   0.08
S      3 -0.2295610000000 -0.5710890000000  0.3041040000000 1.0   0.08
Fe     4 -0.0643560000000  0.3272390000000 -0.4102610000000 1.0   3.89
Fe     4  0.0643560000000 -0.8272390000000  0.0897390000000 1.0   3.89
Fe     4  0.0643560000000 -0.3272390000000  0.4102610000000 1.0   3.89
Fe     4 -0.0643560000000  0.8272390000000 -0.0897390000000 1.0   3.89
Fe     4  0.0018970000000  0.1740240000000  0.3015490000000 1.0   3.91
Fe     4 -0.0018970000000  0.3259760000000 -0.1984510000000 1.0   3.91
Fe     4 -0.0018970000000 -0.1740240000000 -0.3015490000000 1.0   3.91
Fe     4  0.0018970000000 -0.3259760000000  0.1984510000000 1.0   3.91
END
