TITL LFSO-LiFe3S4O-201028-175724-6bd3e0 -0.0021 426.411330 -8.87141035E+003 20.0182 20.8489 18 (Pmm2) n - 1
REM
REM Run started: Wed, 28 Oct 2020 21:21:46 +0000 in /lustre/scratch/uccabz1/launch_tmp/launcher_2020-10-28-17-57-22-365915
REM CASTEP 20.1 from code version af48c487+ pr-geom-scf-spinfix Tue Jun 2 15:39:59 2020 +0100
REM Functional Perdew Burke Ernzerhof Relativity Koelling-Harmon Dispersion off
REM Cut-off 340.0000 eV Grid scale 1.7500 Gmax 16.5316 1/A FBSC none
REM MP grid 2 3 2 Offset 0.000 0.000 0.000 No. kpts 2 Spacing 0.07
REM Total runtime: 12770 s
REM Overall efficiency: 81.4 %
REM
REM
REM
REM compiler GCC version 4.9.2
REM options -cpp -iprefix /lustre/shared/ucl/apps/gcc/4.9.2/bin/../lib/gcc/x86_64-unknown-linux-gnu/4.9.2/ -mtune=corei7 -march=x86-64 -g -Og
REM COMMAND_LINE
REM seed 1135266131 416561807 -1767722133 666290503 -796951578 -2113042375 -1793412158 576019959 23060930 -353203218 -1258504245 512989732
REM
REM S 3|1.8|5|6|7|30:31:32(qc=5)
REM O 2|1.5|12|13|15|20:21(qc=5)
REM Li 1|1.3|8|9|10|10U:20(qc=5)
REM Fe 3|2.2|2.0|1.0|8|9|10|40:41:32(qc=5)
REM Fe d:4.0 
REM
CELL 1.54180    8.44853    6.05425    8.33656   90.00000   90.00000   90.00000
LATT -1
SFAC Li O  S  Fe 
Li     1  0.2373720000000 -0.5000000000000 -0.1540510000000 1.0  -0.01
Li     1 -0.2373720000000 -0.5000000000000 -0.1540510000000 1.0  -0.01
O      2 -0.1804820000000 -0.5000000000000  0.3911630000000 1.0   0.12
O      2  0.1804820000000 -0.5000000000000  0.3911630000000 1.0   0.12
S      3 -0.2503010000000 -0.1749600000000 -0.3853060000000 1.0   0.00
S      3  0.2503010000000  0.1749600000000 -0.3853060000000 1.0   0.00
S      3  0.2503010000000 -0.1749600000000 -0.3853060000000 1.0   0.00
S      3 -0.2503010000000  0.1749600000000 -0.3853060000000 1.0   0.00
S      3 -0.2789740000000  0.1737820000000  0.0642420000000 1.0  -0.04
S      3  0.2789740000000 -0.1737820000000  0.0642420000000 1.0  -0.04
S      3  0.2789740000000  0.1737820000000  0.0642420000000 1.0  -0.04
S      3 -0.2789740000000 -0.1737820000000  0.0642420000000 1.0  -0.04
Fe     4 -0.3076240000000  0.2253380000000  0.3354450000000 1.0   3.32
Fe     4  0.3076240000000 -0.2253380000000  0.3354450000000 1.0   3.32
Fe     4  0.3076240000000  0.2253380000000  0.3354450000000 1.0   3.32
Fe     4 -0.3076240000000 -0.2253380000000  0.3354450000000 1.0   3.32
Fe     4  0.0000000000000  0.3002860000000  0.4887480000000 1.0   3.33
Fe     4  0.0000000000000 -0.3002860000000  0.4887480000000 1.0   3.33
END
