TITL LFSO-Li2Fe4S4O-201024-094745-c15aee -0.0072 233.013430 -5.50158695E+003 16.0000 16.0873 11 (C2) n - 1
REM
REM Run started: Sat, 24 Oct 2020 13:54:31 +0100 in /lustre/scratch/uccabz1/launch_tmp/launcher_2020-10-24-08-47-43-986413
REM CASTEP 20.1 from code version af48c487+ pr-geom-scf-spinfix Tue Jun 2 15:39:59 2020 +0100
REM Functional Perdew Burke Ernzerhof Relativity Koelling-Harmon Dispersion off
REM Cut-off 340.0000 eV Grid scale 1.7500 Gmax 16.5316 1/A FBSC none
REM MP grid 3 4 3 Offset 0.000 0.000 0.000 No. kpts 18 Spacing 0.07
REM Total runtime: 15911 s
REM Overall efficiency: 94.6667 %
REM
REM
REM
REM compiler GCC version 4.9.2
REM options -cpp -iprefix /lustre/shared/ucl/apps/gcc/4.9.2/bin/../lib/gcc/x86_64-unknown-linux-gnu/4.9.2/ -mtune=corei7 -march=x86-64 -g -Og
REM COMMAND_LINE
REM seed 703736263 -1486098752 -1014935451 1067155168 -929926086 -1406622541 1333554897 1682048432 -1355162398 -224367911 -1935900464 -216379368
REM
REM S 3|1.8|5|6|7|30:31:32(qc=5)
REM O 2|1.5|12|13|15|20:21(qc=5)
REM Li 1|1.3|8|9|10|10U:20(qc=5)
REM Fe 3|2.2|2.0|1.0|8|9|10|40:41:32(qc=5)
REM Fe d:4.0 
REM
CELL 1.54180    7.54818    6.32501    7.20502  115.48176   90.00000  126.63346
LATT -1
SFAC Li O  S  Fe 
Li     1  0.2391120000000 -0.1700250000000  0.1455860000000 1.0  -0.05
Li     1  0.4091370000000  0.1700250000000 -0.1455860000000 1.0  -0.05
O      2  0.1972250000000  0.0000000000000  0.0000000000000 1.0   0.19
S      3 -0.5061460000000 -0.2986240000000  0.0639940000000 1.0   0.13
S      3 -0.2075210000000  0.2986240000000 -0.0639940000000 1.0   0.13
S      3  0.1795880000000  0.6085460000000  0.5092730000000 1.0   0.10
S      3 -0.4289580000000 -0.6085460000000 -0.5092730000000 1.0   0.10
Fe     4  0.5215410000000 -0.2578290000000 -0.2596420000000 1.0   3.87
Fe     4 -0.2206300000000  0.2578290000000  0.2596420000000 1.0   3.87
Fe     4 -0.0921400000000 -0.3859680000000 -0.2319890000000 1.0   3.86
Fe     4  0.2938290000000  0.3859680000000  0.2319890000000 1.0   3.86
END
