TITL LFSO-LiFe3S4O-201028-170436-ba69b2 0.0004 704.836788 -8.87221915E+003 -22.0000 23.3440 18 (Cm) n - 1
REM
REM Run started: Fri, 30 Oct 2020 05:12:44 +0000 in /lustre/scratch/uccabz1/launch_tmp/launcher_2020-10-28-17-04-34-639184
REM CASTEP 20.1 from code version af48c487+ pr-geom-scf-spinfix Tue Jun 2 15:39:59 2020 +0100
REM Functional Perdew Burke Ernzerhof Relativity Koelling-Harmon Dispersion off
REM Cut-off 340.0000 eV Grid scale 1.7500 Gmax 16.5316 1/A FBSC none
REM MP grid 2 3 2 Offset 0.000 0.000 0.000 No. kpts 6 Spacing 0.07
REM Total runtime: 143326 s
REM Overall efficiency: 98.0769 %
REM
REM
REM
REM compiler GCC version 4.9.2
REM options -cpp -iprefix /lustre/shared/ucl/apps/gcc/4.9.2/bin/../lib/gcc/x86_64-unknown-linux-gnu/4.9.2/ -mtune=corei7 -march=x86-64 -g -Og
REM COMMAND_LINE
REM seed -1991323149 -1052847855 -1335522970 2072022936 -1408874413 1886822933 478786540 2032294721 7796071 68599285 848075903 559682779
REM
REM S 3|1.8|5|6|7|30:31:32(qc=5)
REM O 2|1.5|12|13|15|20:21(qc=5)
REM Li 1|1.3|8|9|10|10U:20(qc=5)
REM Fe 3|2.2|2.0|1.0|8|9|10|40:41:32(qc=5)
REM Fe d:4.0 
REM
CELL 1.54180   11.26821    8.61543   10.29730   74.08248   90.00001  130.84058
LATT -1
SFAC Li O  S  Fe 
Li     1  0.5050300000000 -0.5584630000000 -0.1794380000000 1.0   0.00
Li     1 -0.0634930000000 -0.5584630000000 -0.1794380000000 1.0   0.00
O      2  0.3642560000000  0.2676230000000 -0.2593270000000 1.0  -0.10
O      2 -0.0966320000000  0.2676230000000 -0.2593270000000 1.0  -0.10
S      3 -0.4384880000000 -0.3761400000000  0.2133950000000 1.0  -0.05
S      3  0.0623480000000 -0.3761400000000  0.2133950000000 1.0  -0.05
S      3 -0.2254090000000 -0.2680420000000 -0.1418530000000 1.0   0.20
S      3 -0.0426330000000 -0.2680420000000 -0.1418530000000 1.0   0.20
S      3 -0.0319900000000  0.1212590000000  0.2070160000000 1.0  -0.05
S      3  0.1532490000000  0.1212590000000  0.2070160000000 1.0  -0.05
S      3 -0.2932210000000 -0.0472310000000  0.5218550000000 1.0  -0.02
S      3  0.2459900000000 -0.0472310000000  0.5218550000000 1.0  -0.02
Fe     4  0.1087780000000 -0.1978310000000  0.3575260000000 1.0  -3.78
Fe     4 -0.3066090000000 -0.1978310000000  0.3575260000000 1.0  -3.78
Fe     4 -0.1679790000000  0.0382850000000 -0.2944790000000 1.0  -3.47
Fe     4  0.2062640000000  0.0382850000000 -0.2944790000000 1.0  -3.47
Fe     4  0.3461250000000  0.2776880000000  0.3501300000000 1.0  -3.72
Fe     4 -0.0684370000000  0.2776880000000  0.3501300000000 1.0  -3.72
END
