TITL LFSO-Li4Fe3S3O2-201028-224251-7759af 0.2469 226.105843 -5.17223957E+003 -11.6735 12.0333 12 (Cm) n - 1
REM
REM Run started: Thu, 29 Oct 2020 06:48:47 +0000 in /lustre/scratch/uccabz1/launch_tmp/launcher_2020-10-28-22-42-50-026405
REM CASTEP 20.1 from code version af48c487+ pr-geom-scf-spinfix Tue Jun 2 15:39:59 2020 +0100
REM Functional Perdew Burke Ernzerhof Relativity Koelling-Harmon Dispersion off
REM Cut-off 340.0000 eV Grid scale 1.7500 Gmax 16.5316 1/A FBSC none
REM MP grid 9 3 3 Offset 0.000 0.000 0.000 No. kpts 28 Spacing 0.07
REM Total runtime: 55119.2 s
REM Overall efficiency: 73.5 %
REM
REM
REM
REM compiler GCC version 4.9.2
REM options -cpp -iprefix /lustre/shared/ucl/apps/gcc/4.9.2/bin/../lib/gcc/x86_64-unknown-linux-gnu/4.9.2/ -mtune=corei7 -march=x86-64 -g -Og
REM COMMAND_LINE
REM seed 1951640407 33355143 1580829177 1873301439 -1222296107 320548976 -1080735583 -1619012653 1555668225 1066625180 365217900 -1310963048
REM
REM S 3|1.8|5|6|7|30:31:32(qc=5)
REM O 2|1.5|12|13|15|20:21(qc=5)
REM Li 1|1.3|8|9|10|10U:20(qc=5)
REM Fe 3|2.2|2.0|1.0|8|9|10|40:41:32(qc=5)
REM Fe d:4.0 
REM
CELL 1.54180    3.73129   18.74432   18.74432  138.89228   70.19665   70.19665
LATT -1
SFAC Li O  S  Fe 
Li     1 -0.4154590000000  0.0882520000000 -0.2286620000000 1.0   0.07
Li     1 -0.4154590000000 -0.2286620000000  0.0882520000000 1.0   0.07
Li     1 -0.1143680000000  0.3748870000000 -0.0940790000000 1.0   0.01
Li     1 -0.1143680000000 -0.0940790000000  0.3748870000000 1.0   0.01
O      2  0.3601860000000 -0.1085460000000  0.0908390000000 1.0  -0.13
O      2  0.3601860000000  0.0908390000000 -0.1085460000000 1.0  -0.13
S      3  0.3092240000000 -0.3375030000000  0.0664370000000 1.0  -0.24
S      3  0.3092240000000  0.0664370000000 -0.3375030000000 1.0  -0.24
S      3  0.0166840000000  0.2134410000000  0.2134410000000 1.0  -0.07
Fe     4  0.7520630000000  0.1099680000000 -0.0616990000000 1.0  -3.79
Fe     4  0.7520630000000 -0.0616990000000  0.1099680000000 1.0  -3.79
Fe     4 -0.2738650000000 -0.1472720000000 -0.1472720000000 1.0  -3.41
END
