TITL LFSO-Li3FeS2O-201024-175815-30b86b -0.0133 119.402674 -2.50720076E+003 3.00135 3.67736 7 (Pm) n - 1
REM
REM Run started: Sat, 24 Oct 2020 18:16:38 +0100 in /lustre/scratch/uccabz1/launch_tmp/launcher_2020-10-24-16-58-12-834596
REM CASTEP 20.1 from code version af48c487+ pr-geom-scf-spinfix Tue Jun 2 15:39:59 2020 +0100
REM Functional Perdew Burke Ernzerhof Relativity Koelling-Harmon Dispersion off
REM Cut-off 340.0000 eV Grid scale 1.7500 Gmax 16.5316 1/A FBSC none
REM MP grid 5 4 2 Offset 0.000 0.000 0.000 No. kpts 10 Spacing 0.07
REM Total runtime: 1263.41 s
REM Overall efficiency: 77.5 %
REM
REM
REM
REM compiler GCC version 4.9.2
REM options -cpp -iprefix /lustre/shared/ucl/apps/gcc/4.9.2/bin/../lib/gcc/x86_64-unknown-linux-gnu/4.9.2/ -mtune=corei7 -march=x86-64 -g -Og
REM COMMAND_LINE
REM seed 1096413125 -1335495802 -755656866 267401605 726799384 1901622605 -247381669 1173522080 -1186180005 1974552512 1288260399 1738890346
REM
REM S 3|1.8|5|6|7|30:31:32(qc=5)
REM O 2|1.5|12|13|15|20:21(qc=5)
REM Li 1|1.3|8|9|10|10U:20(qc=5)
REM Fe 3|2.2|2.0|1.0|8|9|10|40:41:32(qc=5)
REM Fe d:4.0 
REM
CELL 1.54180    3.37663    4.05673    9.08509   90.00000   90.00000  106.37135
LATT -1
SFAC Li O  S  Fe 
Li     1 -0.4703450000000 -0.4118840000000  0.1892600000000 1.0   0.01
Li     1 -0.4703450000000 -0.4118840000000 -0.1892600000000 1.0   0.01
Li     1  0.0816180000000 -0.0884940000000  0.0000000000000 1.0   0.01
O      2  0.5140710000000 -0.2836610000000  0.0000000000000 1.0  -0.13
S      3 -0.1068170000000  0.1694960000000  0.3226170000000 1.0  -0.12
S      3 -0.1068170000000  0.1694960000000 -0.3226170000000 1.0  -0.12
Fe     4  0.3970950000000  0.1847810000000 -0.5000000000000 1.0   3.35
END
