TITL LFSO-Li4Fe3S3O2-201029-001608-2f9383 0.3331 567.685674 -1.03339047E+004 20.3405 21.0820 24 (Cm) n - 1
REM
REM Run started: Fri, 30 Oct 2020 11:21:06 +0000 in /lustre/scratch/uccabz1/launch_tmp/launcher_2020-10-29-00-16-06-299088
REM CASTEP 20.1 from code version af48c487+ pr-geom-scf-spinfix Tue Jun 2 15:39:59 2020 +0100
REM Functional Perdew Burke Ernzerhof Relativity Koelling-Harmon Dispersion off
REM Cut-off 340.0000 eV Grid scale 1.7500 Gmax 16.5316 1/A FBSC none
REM MP grid 3 3 1 Offset 0.000 0.000 0.000 No. kpts 5 Spacing 0.07
REM Total runtime: 129822 s
REM Overall efficiency: 74.5833 %
REM
REM
REM
REM compiler GCC version 4.9.2
REM options -cpp -iprefix /lustre/shared/ucl/apps/gcc/4.9.2/bin/../lib/gcc/x86_64-unknown-linux-gnu/4.9.2/ -mtune=corei7 -march=x86-64 -g -Og
REM COMMAND_LINE
REM seed -1892565078 -2138274402 -576157 7096221 -1218377990 -1949873441 -151003232 -978395809 316887633 -407436603 -1446038337 56999139
REM
REM S 3|1.8|5|6|7|30:31:32(qc=5)
REM O 2|1.5|12|13|15|20:21(qc=5)
REM Li 1|1.3|8|9|10|10U:20(qc=5)
REM Fe 3|2.2|2.0|1.0|8|9|10|40:41:32(qc=5)
REM Fe d:4.0 
REM
CELL 1.54180    5.66394    5.66394   20.40869   83.45688  115.93823   80.47497
LATT -1
SFAC Li O  S  Fe 
Li     1  0.0084330000000 -0.0766120000000  0.4317150000000 1.0  -0.06
Li     1  0.5083270000000  0.4232820000000  0.4317150000000 1.0  -0.06
Li     1  0.4183330000000  0.1174800000000  0.0495700000000 1.0  -0.01
Li     1 -0.0679110000000 -0.3687640000000  0.0495700000000 1.0  -0.01
Li     1 -0.4889180000000 -0.0557560000000 -0.1456310000000 1.0  -0.12
Li     1 -0.0898750000000  0.3432880000000 -0.1456310000000 1.0  -0.12
Li     1  0.5281770000000  0.1699130000000  0.3240470000000 1.0  -0.00
Li     1  0.1541340000000 -0.2041300000000  0.3240470000000 1.0  -0.00
O      2 -0.7152770000000 -0.2853820000000  0.4231070000000 1.0   0.10
O      2 -0.2915110000000  0.1383830000000  0.4231070000000 1.0   0.10
O      2 -0.5033710000000  0.0611660000000  0.2401710000000 1.0   0.01
O      2 -0.8209940000000 -0.2564580000000  0.2401710000000 1.0   0.01
S      3  0.2939800000000  0.1262120000000  0.1552330000000 1.0   0.00
S      3  0.0290210000000 -0.1387470000000  0.1552330000000 1.0   0.00
S      3 -0.0940600000000  0.3092140000000 -0.0311290000000 1.0   0.02
S      3 -0.3403430000000  0.0629310000000 -0.0311290000000 1.0   0.02
S      3 -0.6674820000000 -0.2143470000000 -0.3884900000000 1.0   0.04
S      3 -0.1741440000000  0.2789920000000 -0.3884900000000 1.0   0.04
Fe     4 -0.5220780000000 -0.2575590000000 -0.4768270000000 1.0   3.48
Fe     4 -0.2192680000000  0.0452510000000 -0.4768270000000 1.0   3.48
Fe     4  0.5862590000000  0.3974880000000 -0.3136470000000 1.0   3.37
Fe     4  0.2888650000000  0.1000940000000 -0.3136470000000 1.0   3.37
Fe     4 -0.2920170000000 -0.2479810000000 -0.2429730000000 1.0   3.36
Fe     4  0.0050080000000  0.0490440000000 -0.2429730000000 1.0   3.36
END
