TITL LFSO-Li4Fe3S3O2-201029-160413-576b92 -0.0072 297.173584 -5.17210393E+003 10.0007 10.7550 12 (Pm) n - 1
REM
REM Run started: Thu, 29 Oct 2020 20:20:49 +0000 in /scratch/scratch/uccabz1/launch_tmp/launcher_2020-10-29-16-04-11-908696
REM CASTEP 19.11| from code version Version unavailable
REM Functional Perdew Burke Ernzerhof Relativity Koelling-Harmon Dispersion off
REM Cut-off 340.0000 eV Grid scale 1.7500 Gmax 16.5316 1/A FBSC none
REM MP grid 4 2 3 Offset 0.000 0.000 0.000 No. kpts 6 Spacing 0.07
REM Total runtime: 16266.4 s
REM Overall efficiency: 76.25 %
REM
REM
REM
REM compiler GCC version 4.9.2
REM options -cpp -iprefix /scratch/UCL/applications/gcc/4.9.2/bin/../lib/gcc/x86_64-unknown-linux-gnu/4.9.2/ -mtune=corei7 -march=x86-64 -g -O2
REM COMMAND_LINE
REM seed 128507801 -1653488083 990588729 1932822789 -362017718 1103956825 -615561086 -1178727159 1626674331 736168638 -404823999 993034900
REM
REM S 3|1.8|5|6|7|30:31:32(qc=5)
REM O 2|1.5|12|13|15|20:21(qc=5)
REM Li 1|1.3|8|9|10|10U:20(qc=5)
REM Fe 3|2.2|2.0|1.0|8|9|10|40:41:32(qc=5)
REM Fe d:4.0 
REM
CELL 1.54180    4.17348   12.73939    6.12248   90.00000  114.08710   90.00000
LATT -1
SFAC Li O  S  Fe 
Li     1  0.5450550000000  0.1483380000000 -0.5160100000000 1.0  -0.03
Li     1  0.5450550000000 -0.1483380000000 -0.5160100000000 1.0  -0.03
Li     1  0.1646340000000 -0.2584790000000 -0.2896440000000 1.0  -0.01
Li     1  0.1646340000000  0.2584790000000 -0.2896440000000 1.0  -0.01
O      2  0.0654560000000  0.1442630000000  0.5080690000000 1.0   0.05
O      2  0.0654560000000 -0.1442630000000  0.5080690000000 1.0   0.05
S      3 -0.6588680000000 -0.2605270000000  0.1199180000000 1.0   0.05
S      3 -0.6588680000000  0.2605270000000  0.1199180000000 1.0   0.05
S      3  0.7708760000000  0.0000000000000 -0.1185480000000 1.0  -0.14
Fe     4 -0.1438000000000 -0.1665700000000  0.1489080000000 1.0   3.85
Fe     4 -0.1438000000000  0.1665700000000  0.1489080000000 1.0   3.85
Fe     4  0.1446210000000  0.0000000000000  0.6475200000000 1.0   2.32
END
