TITL LFSO-Li2FeSO-201024-191721-7bd270 0.0435 77.052309 -1.99924112E+003 3.43958 3.58931 5 (P3m1) n - 1
REM
REM Run started: Sat, 24 Oct 2020 19:46:53 +0100 in /lustre/scratch/uccabz1/launch_tmp/launcher_2020-10-24-18-17-20-217931
REM CASTEP 20.1 from code version af48c487+ pr-geom-scf-spinfix Tue Jun 2 15:39:59 2020 +0100
REM Functional Perdew Burke Ernzerhof Relativity Koelling-Harmon Dispersion off
REM Cut-off 340.0000 eV Grid scale 1.7500 Gmax 16.5316 1/A FBSC none
REM MP grid 6 6 2 Offset 0.000 0.000 0.000 No. kpts 21 Spacing 0.07
REM Total runtime: 1791.64 s
REM Overall efficiency: 67.125 %
REM
REM
REM
REM compiler GCC version 4.9.2
REM options -cpp -iprefix /lustre/shared/ucl/apps/gcc/4.9.2/bin/../lib/gcc/x86_64-unknown-linux-gnu/4.9.2/ -mtune=corei7 -march=x86-64 -g -Og
REM COMMAND_LINE
REM seed -1851693897 415328060 375838822 -1807544003 -599959582 829825210 -738203148 -1041486902 -471161658 -1357351857 1665282772 -1139962185
REM
REM S 3|1.8|5|6|7|30:31:32(qc=5)
REM O 2|1.5|12|13|15|20:21(qc=5)
REM Li 1|1.3|8|9|10|10U:20(qc=5)
REM Fe 3|2.2|2.0|1.0|8|9|10|40:41:32(qc=5)
REM Fe d:4.0 
REM
CELL 1.54180    2.92489    2.92489   10.40006   90.00000   90.00000  120.00000
LATT -1
SFAC Li O  S  Fe 
Li     1 -0.3333330000000  0.3333330000000 -0.1556070000000 1.0  -0.09
Li     1  0.0000000000000 -0.0000000000000 -0.3871390000000 1.0  -0.00
O      2 -0.3333330000000  0.3333330000000 -0.3183070000000 1.0  -0.00
S      3 -0.3333330000000  0.3333330000000  0.3386860000000 1.0   0.03
Fe     4 -0.3333330000000  0.3333330000000  0.1059220000000 1.0   3.51
END
