TITL LFSO-Li2Fe3S2O2-201024-094445-cbc3e4 0.0217 427.169495 -8.93690781E+003 -22.0000 22.7459 18 (R3) n - 1
REM
REM Run started: Sat, 24 Oct 2020 23:39:50 +0100 in /lustre/scratch/uccabz1/launch_tmp/launcher_2020-10-24-08-44-43-462844
REM CASTEP 20.1 from code version af48c487+ pr-geom-scf-spinfix Tue Jun 2 15:39:59 2020 +0100
REM Functional Perdew Burke Ernzerhof Relativity Koelling-Harmon Dispersion off
REM Cut-off 340.0000 eV Grid scale 1.7500 Gmax 16.5316 1/A FBSC none
REM MP grid 2 2 2 Offset 0.000 0.000 0.000 No. kpts 2 Spacing 0.07
REM Total runtime: 51168.6 s
REM Overall efficiency: 87.0833 %
REM
REM
REM
REM compiler GCC version 4.9.2
REM options -cpp -iprefix /lustre/shared/ucl/apps/gcc/4.9.2/bin/../lib/gcc/x86_64-unknown-linux-gnu/4.9.2/ -mtune=corei7 -march=x86-64 -g -Og
REM COMMAND_LINE
REM seed -1089123487 -1093978127 -1489710476 -708331473 -2138709993 1695333851 -1688443957 1998343300 -660421204 -2018154248 -222022083 -1888235475
REM
REM S 3|1.8|5|6|7|30:31:32(qc=5)
REM O 2|1.5|12|13|15|20:21(qc=5)
REM Li 1|1.3|8|9|10|10U:20(qc=5)
REM Fe 3|2.2|2.0|1.0|8|9|10|40:41:32(qc=5)
REM Fe d:4.0 
REM
CELL 1.54180    7.61310    7.61310    7.61310   81.21881   81.21881   81.21881
LATT -1
SFAC Li O  S  Fe 
Li     1 -0.0608590000000  0.2138770000000 -0.6138250000000 1.0   0.04
Li     1 -0.6138250000000 -0.0608590000000  0.2138770000000 1.0   0.04
Li     1  0.2138770000000 -0.6138250000000 -0.0608590000000 1.0   0.04
Li     1 -0.1898370000000 -0.1898370000000 -0.1898370000000 1.0   0.18
O      2 -0.2764130000000  0.4174060000000 -0.1701660000000 1.0  -0.13
O      2 -0.1701660000000 -0.2764130000000  0.4174060000000 1.0  -0.13
O      2  0.4174060000000 -0.1701660000000 -0.2764130000000 1.0  -0.13
O      2 -0.0754340000000 -0.0754340000000 -0.0754340000000 1.0  -0.15
S      3  0.3165610000000 -0.3893380000000  0.0888450000000 1.0  -0.05
S      3  0.0888450000000  0.3165610000000 -0.3893380000000 1.0  -0.05
S      3 -0.3893380000000  0.0888450000000  0.3165610000000 1.0  -0.05
S      3  0.1215640000000  0.1215640000000  0.1215640000000 1.0  -0.10
Fe     4  0.1966510000000 -0.1243210000000 -0.0951650000000 1.0  -3.83
Fe     4 -0.0951650000000  0.1966510000000 -0.1243210000000 1.0  -3.83
Fe     4 -0.1243210000000 -0.0951650000000  0.1966510000000 1.0  -3.83
Fe     4 -0.3900650000000 -0.1604550000000  0.5348990000000 1.0  -3.33
Fe     4  0.5348990000000 -0.3900650000000 -0.1604550000000 1.0  -3.33
Fe     4 -0.1604550000000  0.5348990000000 -0.3900650000000 1.0  -3.33
END
