TITL LFSO-Li2Fe3S3O-201026-151906-535fcd 0.0006 332.380446 -8.67113047E+003 -24.0000 24.0887 18 (R3) n - 1
REM
REM Run started: Mon, 26 Oct 2020 20:15:28 +0000 in /lustre/scratch/uccabz1/launch_tmp/launcher_2020-10-26-15-19-04-996553
REM CASTEP 20.1 from code version af48c487+ pr-geom-scf-spinfix Tue Jun 2 15:39:59 2020 +0100
REM Functional Perdew Burke Ernzerhof Relativity Koelling-Harmon Dispersion off
REM Cut-off 340.0000 eV Grid scale 1.7500 Gmax 16.5316 1/A FBSC none
REM MP grid 3 3 3 Offset 0.000 0.000 0.000 No. kpts 6 Spacing 0.07
REM Total runtime: 18942 s
REM Overall efficiency: 95 %
REM
REM
REM
REM compiler GCC version 4.9.2
REM options -cpp -iprefix /lustre/shared/ucl/apps/gcc/4.9.2/bin/../lib/gcc/x86_64-unknown-linux-gnu/4.9.2/ -mtune=corei7 -march=x86-64 -g -Og
REM COMMAND_LINE
REM seed -158225811 371071802 456812045 664098245 845341469 -2074014725 -319969623 -1446204382 -254270446 -1509060789 -41768380 -375321302
REM
REM S 3|1.8|5|6|7|30:31:32(qc=5)
REM O 2|1.5|12|13|15|20:21(qc=5)
REM Li 1|1.3|8|9|10|10U:20(qc=5)
REM Fe 3|2.2|2.0|1.0|8|9|10|40:41:32(qc=5)
REM Fe d:4.0 
REM
CELL 1.54180    7.02052    7.02052    7.02052   98.79656   98.79656   98.79656
LATT -1
SFAC Li O  S  Fe 
Li     1  0.5154790000000 -0.2603730000000  0.2405170000000 1.0   0.04
Li     1  0.2405170000000  0.5154790000000 -0.2603730000000 1.0   0.04
Li     1 -0.2603730000000  0.2405170000000  0.5154790000000 1.0   0.04
Li     1  0.0298970000000  0.0298970000000  0.0298970000000 1.0   0.03
O      2 -0.2505560000000 -0.2505560000000 -0.2505560000000 1.0  -0.17
O      2  0.2281350000000  0.2281350000000  0.2281350000000 1.0  -0.22
S      3 -0.5352710000000  0.2257280000000 -0.2904900000000 1.0  -0.09
S      3 -0.2904900000000 -0.5352710000000  0.2257280000000 1.0  -0.09
S      3  0.2257280000000 -0.2904900000000 -0.5352710000000 1.0  -0.09
S      3 -0.1586600000000 -0.0139330000000  0.3213290000000 1.0  -0.15
S      3  0.3213290000000 -0.1586600000000 -0.0139330000000 1.0  -0.15
S      3 -0.0139330000000  0.3213290000000 -0.1586600000000 1.0  -0.15
Fe     4 -0.1215750000000 -0.2516010000000 -0.4813210000000 1.0  -3.84
Fe     4 -0.4813210000000 -0.1215750000000 -0.2516010000000 1.0  -3.84
Fe     4 -0.2516010000000 -0.4813210000000 -0.1215750000000 1.0  -3.84
Fe     4  0.2007570000000  0.0674440000000  0.4359840000000 1.0  -3.84
Fe     4  0.4359840000000  0.2007570000000  0.0674440000000 1.0  -3.84
Fe     4  0.0674440000000  0.4359840000000  0.2007570000000 1.0  -3.84
END
