TITL LFSO-Li6FeS3O-201027-194509-80cae6 -1.0026 405.686543 -6.82206529E+003 4.00000 5.46843 22 (Pc) n - 1
REM
REM Run started: Wed, 28 Oct 2020 01:31:18 +0000 in /lustre/scratch/uccabz1/launch_tmp/launcher_2020-10-27-19-45-07-823057
REM CASTEP 20.1 from code version af48c487+ pr-geom-scf-spinfix Tue Jun 2 15:39:59 2020 +0100
REM Functional Perdew Burke Ernzerhof Relativity Koelling-Harmon Dispersion off
REM Cut-off 340.0000 eV Grid scale 1.7500 Gmax 16.5316 1/A FBSC none
REM MP grid 5 2 2 Offset 0.000 0.000 0.000 No. kpts 5 Spacing 0.07
REM Total runtime: 22867.3 s
REM Overall efficiency: 80 %
REM
REM
REM
REM compiler GCC version 4.9.2
REM options -cpp -iprefix /lustre/shared/ucl/apps/gcc/4.9.2/bin/../lib/gcc/x86_64-unknown-linux-gnu/4.9.2/ -mtune=corei7 -march=x86-64 -g -Og
REM COMMAND_LINE
REM seed -279177496 390371436 -1086346198 -24705217 -1709466399 761346951 46403742 836874300 136748334 1197019591 842736503 1916254755
REM
REM S 3|1.8|5|6|7|30:31:32(qc=5)
REM O 2|1.5|12|13|15|20:21(qc=5)
REM Li 1|1.3|8|9|10|10U:20(qc=5)
REM Fe 3|2.2|2.0|1.0|8|9|10|40:41:32(qc=5)
REM Fe d:4.0 
REM
CELL 1.54180    3.47396    8.07598   14.51821   90.00000   90.00000   84.87060
LATT -1
SFAC Li O  S  Fe 
Li     1 -0.0145480000000 -0.1163780000000  0.3521600000000 1.0  -0.02
Li     1 -0.0145480000000  0.3836220000000 -0.3521600000000 1.0  -0.02
Li     1 -0.0484490000000  0.3752480000000  0.3487790000000 1.0  -0.00
Li     1 -0.0484490000000 -0.1247520000000 -0.3487790000000 1.0  -0.00
Li     1 -0.1259240000000  0.1407250000000  0.5315560000000 1.0  -0.02
Li     1 -0.1259240000000 -0.3592750000000 -0.5315560000000 1.0  -0.02
Li     1 -0.1258890000000  0.0997160000000 -0.2301930000000 1.0  -0.02
Li     1 -0.1258890000000 -0.4002840000000  0.2301930000000 1.0  -0.02
Li     1  0.4075450000000 -0.0982880000000  0.5095160000000 1.0   0.00
Li     1  0.4075450000000 -0.5982880000000 -0.5095160000000 1.0   0.00
Li     1  0.2259620000000 -0.1363550000000 -0.0060870000000 1.0  -0.02
Li     1  0.2259620000000 -0.6363550000000  0.0060870000000 1.0  -0.02
O      2 -0.0807990000000 -0.1356020000000  0.4807490000000 1.0   0.01
O      2 -0.0807990000000  0.3643980000000 -0.4807490000000 1.0   0.01
S      3  0.0101270000000  0.2894100000000  0.1672250000000 1.0  -0.14
S      3  0.0101270000000 -0.2105900000000 -0.1672250000000 1.0  -0.14
S      3  0.3820150000000 -0.4292800000000  0.3464320000000 1.0   0.01
S      3  0.3820150000000  0.0707200000000 -0.3464320000000 1.0   0.01
S      3  0.0952820000000 -0.0891220000000  0.1538480000000 1.0  -0.13
S      3  0.0952820000000  0.4108780000000 -0.1538480000000 1.0  -0.13
Fe     4  0.5830350000000 -0.4009940000000 -0.1586650000000 1.0   2.33
Fe     4  0.5830350000000  0.0990060000000  0.1586650000000 1.0   2.33
END
