TITL LFSO-Li3FeS2O-201023-031530-f512eb -0.6063 372.857196 -7.51195092E+003 9.46113 10.5636 21 (C222) n - 1
REM
REM Run started: Fri, 23 Oct 2020 10:41:26 +0100 in /lustre/scratch/uccabz1/launch_tmp/launcher_2020-10-23-07-52-38-696257
REM CASTEP 20.1 from code version af48c487+ pr-geom-scf-spinfix Tue Jun 2 15:39:59 2020 +0100
REM Functional Perdew Burke Ernzerhof Relativity Koelling-Harmon Dispersion off
REM Cut-off 340.0000 eV Grid scale 1.7500 Gmax 16.5316 1/A FBSC none
REM MP grid 4 2 2 Offset 0.000 0.000 0.000 No. kpts 4 Spacing 0.07
REM Total runtime: 41223.5 s
REM Overall efficiency: 79.0909 %
REM
REM
REM
REM compiler GCC version 4.9.2
REM options -cpp -iprefix /lustre/shared/ucl/apps/gcc/4.9.2/bin/../lib/gcc/x86_64-unknown-linux-gnu/4.9.2/ -mtune=corei7 -march=x86-64 -g -Og
REM COMMAND_LINE
REM seed -956047922 -1147065047 818094038 -61697075 1879979275 76776697 -1619769394 -1024094950 387028822 1494077472 -1221735231 -2066115831
REM
REM S 3|1.8|5|6|7|30:31:32(qc=5)
REM O 2|1.5|12|13|15|20:21(qc=5)
REM Li 1|1.3|8|9|10|10U:20(qc=5)
REM Fe 3|2.2|2.0|1.0|8|9|10|40:41:32(qc=5)
REM Fe d:4.0 
REM
CELL 1.54180    4.19692    9.54020    9.54020  102.55062   90.00000   90.00000
LATT -1
SFAC Li O  S  Fe 
Li     1 -0.0722630000000 -0.4767870000000 -0.2714350000000 1.0   0.05
Li     1 -0.0722630000000  0.4767870000000  0.2714350000000 1.0   0.05
Li     1  0.0722630000000  0.2714350000000  0.4767870000000 1.0   0.05
Li     1  0.0722630000000 -0.2714350000000 -0.4767870000000 1.0   0.05
Li     1  0.2156480000000 -0.0910300000000  0.2549670000000 1.0  -0.02
Li     1  0.2156480000000  0.0910300000000 -0.2549670000000 1.0  -0.02
Li     1 -0.2156480000000 -0.2549670000000  0.0910300000000 1.0  -0.02
Li     1 -0.2156480000000  0.2549670000000 -0.0910300000000 1.0  -0.02
Li     1  0.5000000000000  0.0000000000000  0.0000000000000 1.0  -0.41
O      2  0.0000000000000 -0.0908290000000  0.0908290000000 1.0   0.13
O      2  0.0000000000000  0.0908290000000 -0.0908290000000 1.0   0.13
O      2  0.0000000000000  0.5000000000000 -0.5000000000000 1.0   0.03
S      3 -0.3741670000000 -0.1794840000000  0.4031100000000 1.0   0.01
S      3 -0.3741670000000  0.1794840000000 -0.4031100000000 1.0   0.01
S      3  0.3741670000000 -0.4031100000000  0.1794840000000 1.0   0.01
S      3  0.3741670000000  0.4031100000000 -0.1794840000000 1.0   0.01
S      3 -0.0907340000000  0.0000000000000 -0.5000000000000 1.0   0.01
S      3  0.0907340000000  0.5000000000000  0.0000000000000 1.0   0.01
Fe     4  0.0000000000000 -0.1291510000000 -0.1291510000000 1.0   4.16
Fe     4  0.0000000000000  0.1291510000000  0.1291510000000 1.0   4.16
Fe     4 -0.5000000000000  0.5000000000000  0.5000000000000 1.0   1.10
END
