TITL LFSO-Li2Fe4S4O-201023-022749-ab65d7 -0.0637 260.064506 -5.50130973E+003 -16.0000 16.0997 11 (Cm) n - 1
REM
REM Run started: Fri, 23 Oct 2020 07:19:48 +0100 in /lustre/scratch/uccabz1/launch_tmp/launcher_2020-10-23-01-27-48-085054
REM CASTEP 20.1 from code version af48c487+ pr-geom-scf-spinfix Tue Jun 2 15:39:59 2020 +0100
REM Functional Perdew Burke Ernzerhof Relativity Koelling-Harmon Dispersion off
REM Cut-off 340.0000 eV Grid scale 1.7500 Gmax 16.5316 1/A FBSC none
REM MP grid 3 3 3 Offset 0.000 0.000 0.000 No. kpts 10 Spacing 0.07
REM Total runtime: 18654.5 s
REM Overall efficiency: 74.3 %
REM
REM
REM
REM compiler GCC version 4.9.2
REM options -cpp -iprefix /lustre/shared/ucl/apps/gcc/4.9.2/bin/../lib/gcc/x86_64-unknown-linux-gnu/4.9.2/ -mtune=corei7 -march=x86-64 -g -Og
REM COMMAND_LINE
REM seed 303986149 -655302076 -1712774653 834060460 403949838 2036583331 -999646349 -603063972 1739906168 -76596181 -1431636445 1500087377
REM
REM S 3|1.8|5|6|7|30:31:32(qc=5)
REM O 2|1.5|12|13|15|20:21(qc=5)
REM Li 1|1.3|8|9|10|10U:20(qc=5)
REM Fe 3|2.2|2.0|1.0|8|9|10|40:41:32(qc=5)
REM Fe d:4.0 
REM
CELL 1.54180    6.90445    6.90710    6.90710  120.79082   78.77325   78.77325
LATT -1
SFAC Li O  S  Fe 
Li     1 -0.1453230000000 -0.1107210000000  0.1114830000000 1.0   0.04
Li     1 -0.1453230000000  0.1114830000000 -0.1107210000000 1.0   0.04
O      2 -0.0320090000000  0.1433650000000  0.1433650000000 1.0  -0.18
S      3  0.4455420000000  0.2717190000000 -0.0145310000000 1.0  -0.12
S      3  0.4455420000000 -0.0145310000000  0.2717190000000 1.0  -0.12
S      3 -0.0651220000000 -0.1659720000000  0.4392650000000 1.0  -0.15
S      3 -0.0651220000000  0.4392650000000 -0.1659720000000 1.0  -0.15
Fe     4  0.0558440000000 -0.6012760000000  0.1389170000000 1.0  -3.88
Fe     4  0.0558440000000  0.1389170000000 -0.6012760000000 1.0  -3.88
Fe     4  0.5680820000000  0.0168740000000 -0.4283450000000 1.0  -3.80
Fe     4  0.5680820000000 -0.4283450000000  0.0168740000000 1.0  -3.80
END
