TITL LFSO-Li2Fe4S4O-201024-193005-4fde95 -0.0644 214.389158 -5.50142930E+003 16.0000 16.1074 11 (C2) n - 1
REM
REM Run started: Sat, 24 Oct 2020 23:37:39 +0100 in /lustre/scratch/uccabz1/launch_tmp/launcher_2020-10-24-18-30-03-409888
REM CASTEP 20.1 from code version af48c487+ pr-geom-scf-spinfix Tue Jun 2 15:39:59 2020 +0100
REM Functional Perdew Burke Ernzerhof Relativity Koelling-Harmon Dispersion off
REM Cut-off 340.0000 eV Grid scale 1.7500 Gmax 16.5316 1/A FBSC none
REM MP grid 3 4 3 Offset 0.000 0.000 0.000 No. kpts 18 Spacing 0.07
REM Total runtime: 16088.7 s
REM Overall efficiency: 97.4286 %
REM
REM
REM
REM compiler GCC version 4.9.2
REM options -cpp -iprefix /lustre/shared/ucl/apps/gcc/4.9.2/bin/../lib/gcc/x86_64-unknown-linux-gnu/4.9.2/ -mtune=corei7 -march=x86-64 -g -Og
REM COMMAND_LINE
REM seed -1743920808 111160377 292773990 1081658784 -910695929 1876330202 -391617928 1840470535 210347090 -2050772151 986986971 2040540903
REM
REM S 3|1.8|5|6|7|30:31:32(qc=5)
REM O 2|1.5|12|13|15|20:21(qc=5)
REM Li 1|1.3|8|9|10|10U:20(qc=5)
REM Fe 3|2.2|2.0|1.0|8|9|10|40:41:32(qc=5)
REM Fe d:4.0 
REM
CELL 1.54180    6.57651    6.22219    6.89009  112.17981   90.00000  121.90226
LATT -1
SFAC Li O  S  Fe 
Li     1 -0.3114630000000  0.2685370000000 -0.5071260000000 1.0  -0.03
Li     1  0.4200000000000 -0.2685370000000  0.5071260000000 1.0  -0.03
O      2  0.0474640000000  0.0000000000000  0.0000000000000 1.0   0.15
S      3  0.4584980000000 -0.2212950000000  0.1690550000000 1.0   0.11
S      3 -0.3202070000000  0.2212950000000 -0.1690550000000 1.0   0.11
S      3 -0.0193070000000 -0.3659230000000  0.4098630000000 1.0   0.14
S      3  0.3466160000000  0.3659230000000 -0.4098630000000 1.0   0.14
Fe     4  0.0401600000000  0.3553590000000  0.0843940000000 1.0   3.85
Fe     4 -0.3151990000000 -0.3553590000000 -0.0843940000000 1.0   3.85
Fe     4  0.1954210000000 -0.0290230000000  0.2425590000000 1.0   3.85
Fe     4  0.2244440000000  0.0290230000000 -0.2425590000000 1.0   3.85
END
