TITL LFSO-Li2Fe4S3O2-201026-173844-cde97d -0.2427 211.967213 -5.62860339E+003 14.3528 15.4738 11 (R3) n - 1
REM
REM Run started: Mon, 26 Oct 2020 21:06:11 +0000 in /lustre/scratch/uccabz1/launch_tmp/launcher_2020-10-26-18-17-03-506673
REM CASTEP 20.1 from code version af48c487+ pr-geom-scf-spinfix Tue Jun 2 15:39:59 2020 +0100
REM Functional Perdew Burke Ernzerhof Relativity Koelling-Harmon Dispersion off
REM Cut-off 340.0000 eV Grid scale 1.7500 Gmax 16.5316 1/A FBSC none
REM MP grid 3 3 4 Offset 0.000 0.000 0.000 No. kpts 14 Spacing 0.07
REM Total runtime: 13452.1 s
REM Overall efficiency: 96.1538 %
REM
REM
REM
REM compiler GCC version 4.9.2
REM options -cpp -iprefix /lustre/shared/ucl/apps/gcc/4.9.2/bin/../lib/gcc/x86_64-unknown-linux-gnu/4.9.2/ -mtune=corei7 -march=x86-64 -g -Og
REM COMMAND_LINE
REM seed 681093398 1714370393 -1619568681 -1180877003 1745468845 1780766731 223686533 -1441767206 -528022333 -1626748484 -97490250 1544217656
REM
REM S 3|1.8|5|6|7|30:31:32(qc=5)
REM O 2|1.5|12|13|15|20:21(qc=5)
REM Li 1|1.3|8|9|10|10U:20(qc=5)
REM Fe 3|2.2|2.0|1.0|8|9|10|40:41:32(qc=5)
REM Fe d:4.0 
REM
CELL 1.54180    7.30990    7.30990    6.22838   54.06822   54.06822   60.00000
LATT -1
SFAC Li O  S  Fe 
Li     1 -0.2125740000000 -0.2125740000000 -0.3622790000000 1.0  -0.13
Li     1  0.0740140000000  0.0740140000000 -0.2220410000000 1.0  -0.03
O      2 -0.0880480000000 -0.0880480000000  0.2641450000000 1.0  -0.47
O      2 -0.3932000000000 -0.3932000000000  0.1796010000000 1.0   0.14
S      3  0.1513620000000  0.2844260000000 -0.1147620000000 1.0   0.08
S      3  0.2844260000000 -0.3210270000000 -0.1147620000000 1.0   0.08
S      3 -0.3210270000000  0.1513620000000 -0.1147620000000 1.0   0.08
Fe     4  0.3947610000000 -0.0864310000000  0.0786680000000 1.0   3.76
Fe     4 -0.0864310000000 -0.3869980000000  0.0786680000000 1.0   3.76
Fe     4 -0.3869980000000  0.3947610000000  0.0786680000000 1.0   3.76
Fe     4  0.2826410000000  0.2826410000000  0.1520780000000 1.0   3.32
END
