TITL LFSO-Li2FeSO-201025-113116-de489e -0.0163 160.610229 -4.00812761E+003 8.00000 8.09360 10 (P21) n - 1
REM
REM Run started: Sun, 25 Oct 2020 12:55:15 +0000 in /lustre/scratch/uccabz1/launch_tmp/launcher_2020-10-25-11-31-14-353587
REM CASTEP 20.1 from code version af48c487+ pr-geom-scf-spinfix Tue Jun 2 15:39:59 2020 +0100
REM Functional Perdew Burke Ernzerhof Relativity Koelling-Harmon Dispersion off
REM Cut-off 340.0000 eV Grid scale 1.7500 Gmax 16.5316 1/A FBSC none
REM MP grid 4 3 2 Offset 0.000 0.000 0.000 No. kpts 6 Spacing 0.07
REM Total runtime: 5066.85 s
REM Overall efficiency: 88.4444 %
REM
REM
REM
REM compiler GCC version 4.9.2
REM options -cpp -iprefix /lustre/shared/ucl/apps/gcc/4.9.2/bin/../lib/gcc/x86_64-unknown-linux-gnu/4.9.2/ -mtune=corei7 -march=x86-64 -g -Og
REM COMMAND_LINE
REM seed 1074292540 703226382 1767267986 1646536653 841624437 -1842502808 561554251 -80102338 1111378580 1354970701 662390513 1408032026
REM
REM S 3|1.8|5|6|7|30:31:32(qc=5)
REM O 2|1.5|12|13|15|20:21(qc=5)
REM Li 1|1.3|8|9|10|10U:20(qc=5)
REM Fe 3|2.2|2.0|1.0|8|9|10|40:41:32(qc=5)
REM Fe d:4.0 
REM
CELL 1.54180    3.76550    6.21802    7.20994   90.00000   90.00000  107.93457
LATT -1
SFAC Li O  S  Fe 
Li     1 -0.5247330000000  0.4434480000000 -0.0634160000000 1.0  -0.02
Li     1  0.5247330000000 -0.4434480000000 -0.5634160000000 1.0  -0.02
Li     1 -0.0706630000000  0.3791440000000 -0.3119950000000 1.0  -0.01
Li     1  0.0706630000000 -0.3791440000000  0.1880050000000 1.0  -0.01
O      2  0.0181410000000 -0.4712370000000 -0.0848430000000 1.0   0.13
O      2 -0.0181410000000  0.4712370000000  0.4151570000000 1.0   0.13
S      3  0.6995500000000 -0.1080570000000  0.1358210000000 1.0   0.06
S      3 -0.6995500000000  0.1080570000000 -0.3641790000000 1.0   0.06
Fe     4  0.1729940000000 -0.1469400000000 -0.1094460000000 1.0   3.84
Fe     4 -0.1729940000000  0.1469400000000  0.3905540000000 1.0   3.84
END
