TITL LFSO-Li2Fe3S3O-201026-122458-b7b8bf 0.0000 275.554155 -4.33420196E+003 12.0000 12.2686 9 (P2) n - 1
REM
REM Run started: Wed, 28 Oct 2020 04:43:39 +0000 in /scratch/scratch/uccabz1/launch_tmp/launcher_2020-10-28-00-49-04-616394
REM CASTEP 19.11| from code version Version unavailable
REM Functional Perdew Burke Ernzerhof Relativity Koelling-Harmon Dispersion off
REM Cut-off 340.0000 eV Grid scale 1.7500 Gmax 16.5316 1/A FBSC none
REM MP grid 3 3 3 Offset 0.000 0.000 0.000 No. kpts 10 Spacing 0.07
REM Total runtime: 15069.9 s
REM Overall efficiency: 80.7692 %
REM
REM
REM
REM compiler GCC version 4.9.2
REM options -cpp -iprefix /lustre/shared/ucl/apps/gcc/4.9.2/bin/../lib/gcc/x86_64-unknown-linux-gnu/4.9.2/ -mtune=corei7 -march=x86-64 -g -Og
REM COMMAND_LINE
REM seed -128586384 1776546141 726034020 68369044 961769067 -780282809 794480494 43770055 1308481598 -1287830136 796383746 1934755030
REM
REM S 3|1.8|5|6|7|30:31:32(qc=5)
REM O 2|1.5|12|13|15|20:21(qc=5)
REM Li 1|1.3|8|9|10|10U:20(qc=5)
REM Fe 3|2.2|2.0|1.0|8|9|10|40:41:32(qc=5)
REM Fe d:4.0 
REM
CELL 1.54180    7.63363    6.26005    6.46069   90.00000   90.00000  116.80809
LATT -1
SFAC Li O  S  Fe 
Li     1 -0.0815830000000  0.1660510000000 -0.1264240000000 1.0  -0.00
Li     1  0.0815830000000 -0.1660510000000 -0.1264240000000 1.0  -0.00
O      2  0.0000000000000  0.0000000000000 -0.3126940000000 1.0   0.29
S      3  0.2665420000000 -0.4012010000000 -0.2984880000000 1.0   0.08
S      3 -0.2665420000000  0.4012010000000 -0.2984880000000 1.0   0.08
S      3  0.0000000000000  0.0000000000000  0.1976330000000 1.0   0.04
Fe     4  0.1280210000000  0.2572800000000  0.4880670000000 1.0   3.81
Fe     4 -0.1280210000000 -0.2572800000000  0.4880670000000 1.0   3.81
Fe     4 -0.5000000000000  0.5000000000000 -0.1912040000000 1.0   3.91
END
