TITL LFSO-Li4Fe3S3O2-201029-051355-94ae56 -0.1309 253.139881 -5.17327640E+003 12.0000 12.2049 12 (Cm) n - 1
REM
REM Run started: Thu, 29 Oct 2020 13:49:34 +0000 in /scratch/scratch/uccabz1/launch_tmp/launcher_2020-10-29-13-26-24-562420
REM CASTEP 19.11| from code version Version unavailable
REM Functional Perdew Burke Ernzerhof Relativity Koelling-Harmon Dispersion off
REM Cut-off 340.0000 eV Grid scale 1.7500 Gmax 16.5316 1/A FBSC none
REM MP grid 4 4 3 Offset 0.000 0.000 0.000 No. kpts 16 Spacing 0.07
REM Total runtime: 28766.5 s
REM Overall efficiency: 88.3333 %
REM
REM
REM
REM compiler GCC version 4.9.2
REM options -cpp -iprefix /scratch/UCL/applications/gcc/4.9.2/bin/../lib/gcc/x86_64-unknown-linux-gnu/4.9.2/ -mtune=corei7 -march=x86-64 -g -O2
REM COMMAND_LINE
REM seed -52987732 523677439 -1090895615 -106679542 349435771 -966837383 717386176 -1362917267 875434177 -1316631448 -1417808736 1049108913
REM
REM S 3|1.8|5|6|7|30:31:32(qc=5)
REM O 2|1.5|12|13|15|20:21(qc=5)
REM Li 1|1.3|8|9|10|10U:20(qc=5)
REM Fe 3|2.2|2.0|1.0|8|9|10|40:41:32(qc=5)
REM Fe d:4.0 
REM
CELL 1.54180    6.51402    6.51402   10.37556  113.46594  113.46594  117.11466
LATT -1
SFAC Li O  S  Fe 
Li     1 -0.2160240000000 -0.4905080000000 -0.7161950000000 1.0  -0.01
Li     1 -0.4905080000000 -0.2160240000000 -0.7161950000000 1.0  -0.01
Li     1 -0.2865690000000  0.2832930000000 -0.0467780000000 1.0  -0.05
Li     1  0.2832930000000 -0.2865690000000 -0.0467780000000 1.0  -0.05
O      2 -0.1407450000000 -0.4796510000000 -0.1280860000000 1.0   0.15
O      2 -0.4796510000000 -0.1407450000000 -0.1280860000000 1.0   0.15
S      3  0.6290620000000  0.2535750000000  0.3927760000000 1.0   0.12
S      3  0.2535750000000  0.6290620000000  0.3927760000000 1.0   0.12
S      3 -0.4658380000000 -0.4658380000000  0.0650740000000 1.0   0.10
Fe     4 -0.4222900000000 -0.8122010000000 -0.4079420000000 1.0   3.80
Fe     4 -0.8122010000000 -0.4222900000000 -0.4079420000000 1.0   3.80
Fe     4 -0.2681600000000 -0.2681600000000 -0.0527080000000 1.0   3.85
END
