TITL LFSO-Li2Fe4S4O-201024-231105-3880c3 -0.5808 444.018445 -1.09956445E+004 25.3351 26.3772 22 (C222) n - 1
REM
REM Run started: Sun, 25 Oct 2020 17:21:49 +0000 in /scratch/scratch/uccabz1/launch_tmp/launcher_2020-10-25-03-03-23-431893
REM CASTEP 19.11| from code version Version unavailable
REM Functional Perdew Burke Ernzerhof Relativity Koelling-Harmon Dispersion off
REM Cut-off 340.0000 eV Grid scale 1.7500 Gmax 16.5316 1/A FBSC none
REM MP grid 3 3 2 Offset 0.000 0.000 0.000 No. kpts 4 Spacing 0.07
REM Total runtime: 64451.8 s
REM Overall efficiency: 75.5714 %
REM
REM
REM
REM compiler GCC version 4.9.2
REM options -cpp -iprefix /lustre/shared/ucl/apps/gcc/4.9.2/bin/../lib/gcc/x86_64-unknown-linux-gnu/4.9.2/ -mtune=corei7 -march=x86-64 -g -Og
REM COMMAND_LINE
REM seed 1948166684 -1888886604 -2087401484 787237274 1193214659 -727222920 -1742024115 -621175987 977835568 1431285625 -607642426 -1057562441
REM
REM S 3|1.8|5|6|7|30:31:32(qc=5)
REM O 2|1.5|12|13|15|20:21(qc=5)
REM Li 1|1.3|8|9|10|10U:20(qc=5)
REM Fe 3|2.2|2.0|1.0|8|9|10|40:41:32(qc=5)
REM Fe d:4.0 
REM
CELL 1.54180    7.44282    6.56352   11.03424   90.00000   90.00000  124.54017
LATT -1
SFAC Li O  S  Fe 
Li     1 -0.0670400000000 -0.2704900000000  0.2513600000000 1.0  -0.01
Li     1  0.0670400000000  0.2704900000000  0.2513600000000 1.0  -0.01
Li     1  0.2034500000000  0.2704900000000 -0.2513600000000 1.0  -0.01
Li     1 -0.2034500000000 -0.2704900000000 -0.2513600000000 1.0  -0.01
O      2  0.0000000000000  0.5000000000000 -0.6166390000000 1.0   0.04
O      2 -0.5000000000000 -0.5000000000000  0.6166390000000 1.0   0.04
S      3  0.2942010000000  0.1081430000000  0.2875090000000 1.0  -0.01
S      3 -0.2942010000000 -0.1081430000000  0.2875090000000 1.0  -0.01
S      3  0.1860580000000 -0.1081430000000 -0.2875090000000 1.0  -0.01
S      3 -0.1860580000000  0.1081430000000 -0.2875090000000 1.0  -0.01
S      3  0.3303520000000  0.3834380000000 -0.0468370000000 1.0   0.00
S      3 -0.3303520000000 -0.3834380000000 -0.0468370000000 1.0   0.00
S      3 -0.0530870000000 -0.3834380000000  0.0468370000000 1.0   0.00
S      3  0.0530870000000  0.3834380000000  0.0468370000000 1.0   0.00
Fe     4 -0.0647750000000  0.2649420000000 -0.4763570000000 1.0   3.21
Fe     4  0.0647750000000 -0.2649420000000 -0.4763570000000 1.0   3.21
Fe     4 -0.3297170000000 -0.2649420000000  0.4763570000000 1.0   3.21
Fe     4  0.3297170000000  0.2649420000000  0.4763570000000 1.0   3.21
Fe     4  0.3540670000000 -0.2403230000000  0.3622220000000 1.0   3.12
Fe     4 -0.3540670000000  0.2403230000000  0.3622220000000 1.0   3.12
Fe     4 -0.4056100000000  0.2403230000000 -0.3622220000000 1.0   3.12
Fe     4  0.4056100000000 -0.2403230000000 -0.3622220000000 1.0   3.12
END
