TITL LFSO-Li2Fe4S4O-201022-173113-118ed9 0.2173 449.931204 -1.09939386E+004 -1.96898 29.8316 22 (R3) n - 1
REM
REM Run started: Fri, 23 Oct 2020 05:18:13 +0100 in /lustre/scratch/uccabz1/launch_tmp/launcher_2020-10-23-02-19-59-180525
REM CASTEP 20.1 from code version af48c487+ pr-geom-scf-spinfix Tue Jun 2 15:39:59 2020 +0100
REM Functional Perdew Burke Ernzerhof Relativity Koelling-Harmon Dispersion off
REM Cut-off 340.0000 eV Grid scale 1.7500 Gmax 16.5316 1/A FBSC none
REM MP grid 2 2 2 Offset 0.000 0.000 0.000 No. kpts 2 Spacing 0.07
REM Total runtime: 27475.2 s
REM Overall efficiency: 80.5714 %
REM
REM
REM
REM compiler GCC version 4.9.2
REM options -cpp -iprefix /lustre/shared/ucl/apps/gcc/4.9.2/bin/../lib/gcc/x86_64-unknown-linux-gnu/4.9.2/ -mtune=corei7 -march=x86-64 -g -Og
REM COMMAND_LINE
REM seed 1125521403 619580893 837384071 -130562085 1484491615 -102386678 -1481540612 -1960106401 930342823 874317219 142886635 -1899890351
REM
REM S 3|1.8|5|6|7|30:31:32(qc=5)
REM O 2|1.5|12|13|15|20:21(qc=5)
REM Li 1|1.3|8|9|10|10U:20(qc=5)
REM Fe 3|2.2|2.0|1.0|8|9|10|40:41:32(qc=5)
REM Fe d:4.0 
REM
CELL 1.54180    7.92623    7.92623    7.92623   74.12079   74.12079   74.12079
LATT -1
SFAC Li O  S  Fe 
Li     1 -0.2125970000000  0.2427410000000  0.1232850000000 1.0  -0.05
Li     1  0.1232850000000 -0.2125970000000  0.2427410000000 1.0  -0.05
Li     1  0.2427410000000  0.1232850000000 -0.2125970000000 1.0  -0.05
Li     1  0.4186810000000  0.4186810000000  0.4186810000000 1.0   0.05
O      2 -0.4760090000000 -0.4760090000000 -0.4760090000000 1.0  -0.64
O      2  0.2311370000000  0.2311370000000  0.2311370000000 1.0  -0.11
S      3 -0.1605530000000 -0.2943990000000  0.3310100000000 1.0  -0.01
S      3  0.3310100000000 -0.1605530000000 -0.2943990000000 1.0  -0.01
S      3 -0.2943990000000  0.3310100000000 -0.1605530000000 1.0  -0.01
S      3  0.1295130000000  0.3705280000000 -0.4165120000000 1.0  -0.03
S      3 -0.4165120000000  0.1295130000000  0.3705280000000 1.0  -0.03
S      3  0.3705280000000 -0.4165120000000  0.1295130000000 1.0  -0.03
S      3 -0.0033680000000 -0.0033680000000 -0.0033680000000 1.0   0.12
S      3 -0.2250860000000 -0.2250860000000 -0.2250860000000 1.0   0.05
Fe     4 -0.5114550000000  0.2044460000000  0.0886500000000 1.0  -3.85
Fe     4  0.0886500000000 -0.5114550000000  0.2044460000000 1.0  -3.85
Fe     4  0.2044460000000  0.0886500000000 -0.5114550000000 1.0  -3.85
Fe     4 -0.1638420000000 -0.0432200000000  0.4727070000000 1.0   3.76
Fe     4  0.4727070000000 -0.1638420000000 -0.0432200000000 1.0   3.76
Fe     4 -0.0432200000000  0.4727070000000 -0.1638420000000 1.0   3.76
Fe     4 -0.3771760000000 -0.3771760000000 -0.3771760000000 1.0  -3.46
Fe     4  0.1216870000000  0.1216870000000  0.1216870000000 1.0   2.60
END
