TITL LFSO-Li2Fe2S2O-201022-002206-7e47d2 -0.0185 261.723757 -6.33783754E+003 16.0000 16.1954 14 (P3) n - 1
REM
REM Run started: Thu, 22 Oct 2020 04:21:26 +0100 in /scratch/scratch/uccabz1/launch_tmp/launcher_2020-10-21-23-22-04-319928
REM CASTEP 19.11| from code version Version unavailable
REM Functional Perdew Burke Ernzerhof Relativity Koelling-Harmon Dispersion off
REM Cut-off 340.0000 eV Grid scale 1.7500 Gmax 16.5316 1/A FBSC none
REM MP grid 3 3 3 Offset 0.000 0.000 0.000 No. kpts 8 Spacing 0.07
REM Total runtime: 16883.8 s
REM Overall efficiency: 91.2857 %
REM
REM
REM
REM compiler GCC version 4.9.2
REM options -cpp -iprefix /scratch/UCL/applications/gcc/4.9.2/bin/../lib/gcc/x86_64-unknown-linux-gnu/4.9.2/ -mtune=corei7 -march=x86-64 -g -O2
REM COMMAND_LINE
REM seed 181106108 1348419864 -1881008 -157879005 -252626198 1772861476 702344224 1140202670 369900532 120108402 -318615147 -1930787369
REM
REM S 3|1.8|5|6|7|30:31:32(qc=5)
REM O 2|1.5|12|13|15|20:21(qc=5)
REM Li 1|1.3|8|9|10|10U:20(qc=5)
REM Fe 3|2.2|2.0|1.0|8|9|10|40:41:32(qc=5)
REM Fe d:4.0 
REM
CELL 1.54180    6.65283    6.65283    6.82809   90.00000   90.00000  120.00000
LATT -1
SFAC Li O  S  Fe 
Li     1  0.3863440000000  0.3274700000000 -0.2636120000000 1.0  -0.04
Li     1 -0.3274700000000  0.0588740000000 -0.2636120000000 1.0  -0.04
Li     1 -0.0588740000000 -0.3863440000000 -0.2636120000000 1.0  -0.04
Li     1  0.0000000000000 -0.0000000000000 -0.1560220000000 1.0  -0.02
O      2 -0.3333330000000  0.3333330000000  0.1098590000000 1.0   0.11
O      2  0.3333330000000 -0.3333330000000  0.2034360000000 1.0   0.04
S      3  0.0457590000000  0.3472780000000 -0.2799030000000 1.0   0.07
S      3 -0.3472780000000 -0.3015180000000 -0.2799030000000 1.0   0.07
S      3  0.3015180000000 -0.0457590000000 -0.2799030000000 1.0   0.07
S      3  0.0000000000000 -0.0000000000000  0.1840660000000 1.0   0.00
Fe     4 -0.3796390000000 -0.3831170000000  0.1164170000000 1.0   3.95
Fe     4  0.3831170000000  0.0034780000000  0.1164170000000 1.0   3.95
Fe     4 -0.0034780000000  0.3796390000000  0.1164170000000 1.0   3.95
Fe     4  0.3333330000000 -0.3333330000000 -0.4808880000000 1.0   3.91
END
