TITL LFSO-Li4Fe2S3O-201026-125837-4544ea -0.0335 252.613972 -3.87031964E+003 8.65548 8.68093 10 (P3) n - 1
REM
REM Run started: Mon, 26 Oct 2020 14:32:56 +0000 in /lustre/scratch/uccabz1/launch_tmp/launcher_2020-10-26-12-58-35-625094
REM CASTEP 20.1 from code version af48c487+ pr-geom-scf-spinfix Tue Jun 2 15:39:59 2020 +0100
REM Functional Perdew Burke Ernzerhof Relativity Koelling-Harmon Dispersion off
REM Cut-off 340.0000 eV Grid scale 1.7500 Gmax 16.5316 1/A FBSC none
REM MP grid 3 3 3 Offset 0.000 0.000 0.000 No. kpts 8 Spacing 0.07
REM Total runtime: 5735.23 s
REM Overall efficiency: 93.875 %
REM
REM
REM
REM compiler GCC version 4.9.2
REM options -cpp -iprefix /lustre/shared/ucl/apps/gcc/4.9.2/bin/../lib/gcc/x86_64-unknown-linux-gnu/4.9.2/ -mtune=corei7 -march=x86-64 -g -Og
REM COMMAND_LINE
REM seed -1548196708 1569173638 -653905884 -316959900 -918690007 -214112322 79565999 1124082761 1894480797 -526900136 1361494042 1025057881
REM
REM S 3|1.8|5|6|7|30:31:32(qc=5)
REM O 2|1.5|12|13|15|20:21(qc=5)
REM Li 1|1.3|8|9|10|10U:20(qc=5)
REM Fe 3|2.2|2.0|1.0|8|9|10|40:41:32(qc=5)
REM Fe d:4.0 
REM
CELL 1.54180    7.67155    7.67155    4.95633   90.00000   90.00000  120.00000
LATT -1
SFAC Li O  S  Fe 
Li     1 -0.1106140000000  0.3342170000000  0.4437470000000 1.0  -0.01
Li     1 -0.3342170000000 -0.4448310000000  0.4437470000000 1.0  -0.01
Li     1  0.4448310000000  0.1106140000000  0.4437470000000 1.0  -0.01
Li     1 -0.3333330000000  0.3333330000000 -0.1098510000000 1.0   0.06
O      2 -0.3333330000000  0.3333330000000 -0.4794410000000 1.0   0.05
S      3 -0.4177380000000 -0.3682330000000 -0.0125420000000 1.0   0.26
S      3  0.3682330000000 -0.0495060000000 -0.0125420000000 1.0   0.26
S      3  0.0495060000000  0.4177380000000 -0.0125420000000 1.0   0.26
Fe     4  0.3333330000000 -0.3333330000000 -0.2541910000000 1.0   3.90
Fe     4  0.3333330000000 -0.3333330000000  0.2225020000000 1.0   3.87
END
