TITL LFSO-Li6FeSO3-201028-033751-daa67c 0.0426 143.114994 -3.67931414E+003 3.99963 4.08582 11 (R3) n - 1
REM
REM Run started: Wed, 28 Oct 2020 03:56:02 +0000 in /scratch/scratch/uccabz1/launch_tmp/launcher_2020-10-28-03-37-49-268835
REM CASTEP 19.11| from code version Version unavailable
REM Functional Perdew Burke Ernzerhof Relativity Koelling-Harmon Dispersion off
REM Cut-off 340.0000 eV Grid scale 1.7500 Gmax 16.5316 1/A FBSC none
REM MP grid 3 3 3 Offset 0.000 0.000 0.000 No. kpts 6 Spacing 0.07
REM Total runtime: 1112.34 s
REM Overall efficiency: 84 %
REM
REM
REM
REM compiler GCC version 4.9.2
REM options -cpp -iprefix /scratch/UCL/applications/gcc/4.9.2/bin/../lib/gcc/x86_64-unknown-linux-gnu/4.9.2/ -mtune=corei7 -march=x86-64 -g -O2
REM COMMAND_LINE
REM seed -297010395 -508026091 26698097 479955318 1865537085 -1869855808 -1804987026 -1457890358 -366789489 -1923546930 -1715475346 1198001007
REM
REM S 3|1.8|5|6|7|30:31:32(qc=5)
REM O 2|1.5|12|13|15|20:21(qc=5)
REM Li 1|1.3|8|9|10|10U:20(qc=5)
REM Fe 3|2.2|2.0|1.0|8|9|10|40:41:32(qc=5)
REM Fe d:4.0 
REM
CELL 1.54180    5.24884    5.24884    5.24884   94.62290   94.62290   94.62290
LATT -1
SFAC Li O  S  Fe 
Li     1  0.1186060000000 -0.3148650000000  0.4529170000000 1.0  -0.02
Li     1 -0.3148650000000  0.4529170000000  0.1186060000000 1.0  -0.02
Li     1  0.4529170000000  0.1186060000000 -0.3148650000000 1.0  -0.02
Li     1  0.1162240000000 -0.5131530000000 -0.0934410000000 1.0  -0.01
Li     1 -0.5131530000000 -0.0934410000000  0.1162240000000 1.0  -0.01
Li     1 -0.0934410000000  0.1162240000000 -0.5131530000000 1.0  -0.01
O      2 -0.2226120000000  0.3409260000000 -0.2222580000000 1.0   0.10
O      2  0.3409260000000 -0.2222580000000 -0.2226120000000 1.0   0.10
O      2 -0.2222580000000 -0.2226120000000  0.3409260000000 1.0   0.10
S      3  0.2730700000000  0.2730700000000  0.2730700000000 1.0  -0.00
Fe     4 -0.3628330000000 -0.3628330000000 -0.3628330000000 1.0   3.78
END
