TITL LFSO-Li4Fe3S4O-201029-094740-076d82 -0.0106 601.378673 -1.00789951E+004 24.0000 24.3804 24 (P21) n - 1
REM
REM Run started: Fri, 30 Oct 2020 12:04:27 +0000 in /lustre/scratch/uccabz1/launch_tmp/launcher_2020-10-29-09-47-39-242539
REM CASTEP 20.1 from code version af48c487+ pr-geom-scf-spinfix Tue Jun 2 15:39:59 2020 +0100
REM Functional Perdew Burke Ernzerhof Relativity Koelling-Harmon Dispersion off
REM Cut-off 340.0000 eV Grid scale 1.7500 Gmax 16.5316 1/A FBSC none
REM MP grid 4 3 1 Offset 0.000 0.000 0.000 No. kpts 6 Spacing 0.07
REM Total runtime: 109013 s
REM Overall efficiency: 90.6667 %
REM
REM
REM
REM compiler GCC version 4.9.2
REM options -cpp -iprefix /lustre/shared/ucl/apps/gcc/4.9.2/bin/../lib/gcc/x86_64-unknown-linux-gnu/4.9.2/ -mtune=corei7 -march=x86-64 -g -Og
REM COMMAND_LINE
REM seed 2119872919 -87723646 1166761815 -637755795 -1807775927 -357719819 -876760432 -437904373 90629803 1537125578 79578579 -1627504715
REM
REM S 3|1.8|5|6|7|30:31:32(qc=5)
REM O 2|1.5|12|13|15|20:21(qc=5)
REM Li 1|1.3|8|9|10|10U:20(qc=5)
REM Fe 3|2.2|2.0|1.0|8|9|10|40:41:32(qc=5)
REM Fe d:4.0 
REM
CELL 1.54180    6.84612    9.39900   14.94280   90.00000   90.00000  141.28510
LATT -1
SFAC Li O  S  Fe 
Li     1 -0.2125460000000  0.0449560000000 -0.3308750000000 1.0  -0.01
Li     1  0.2125460000000 -0.0449560000000  0.1691250000000 1.0  -0.01
Li     1 -0.2005260000000  0.4414460000000 -0.4305300000000 1.0  -0.01
Li     1  0.2005260000000 -0.4414460000000  0.0694700000000 1.0  -0.01
Li     1 -0.2422370000000  0.0979500000000 -0.1337620000000 1.0  -0.05
Li     1  0.2422370000000 -0.0979500000000  0.3662380000000 1.0  -0.05
Li     1  0.2894710000000 -0.0859760000000 -0.2807640000000 1.0  -0.01
Li     1 -0.2894710000000  0.0859760000000  0.2192360000000 1.0  -0.01
O      2 -0.3085890000000  0.1302460000000 -0.2462610000000 1.0   0.16
O      2  0.3085890000000 -0.1302460000000  0.2537390000000 1.0   0.16
S      3  0.2789020000000 -0.3464690000000 -0.3565170000000 1.0   0.10
S      3 -0.2789020000000  0.3464690000000  0.1434830000000 1.0   0.10
S      3  0.2667490000000  0.2399190000000 -0.4129090000000 1.0   0.12
S      3 -0.2667490000000 -0.2399190000000  0.0870910000000 1.0   0.12
S      3 -0.2006130000000 -0.3668150000000 -0.2037550000000 1.0   0.06
S      3  0.2006130000000  0.3668150000000  0.2962450000000 1.0   0.06
S      3 -0.1589830000000 -0.4917060000000  0.4170560000000 1.0   0.17
S      3  0.1589830000000  0.4917060000000 -0.0829440000000 1.0   0.17
Fe     4  0.4554870000000  0.5261830000000 -0.3157150000000 1.0   3.80
Fe     4 -0.4554870000000 -0.5261830000000  0.1842850000000 1.0   3.80
Fe     4  0.0569200000000 -0.4370800000000  0.2744730000000 1.0   3.83
Fe     4 -0.0569200000000  0.4370800000000 -0.2255270000000 1.0   3.83
Fe     4  0.6294360000000 -0.3581350000000 -0.0663540000000 1.0   3.83
Fe     4 -0.6294360000000  0.3581350000000  0.4336460000000 1.0   3.83
END
