TITL LFSO-Li2FeSO-201023-022728-6bb128 -0.0064 514.054247 -8.00687523E+003 13.0827 13.9876 20 (Pc) n - 1
REM
REM Run started: Fri, 23 Oct 2020 15:07:14 +0100 in /lustre/scratch/uccabz1/launch_tmp/launcher_2020-10-23-01-27-26-551053
REM CASTEP 20.1 from code version af48c487+ pr-geom-scf-spinfix Tue Jun 2 15:39:59 2020 +0100
REM Functional Perdew Burke Ernzerhof Relativity Koelling-Harmon Dispersion off
REM Cut-off 340.0000 eV Grid scale 1.7500 Gmax 16.5316 1/A FBSC none
REM MP grid 4 3 1 Offset 0.000 0.000 0.000 No. kpts 6 Spacing 0.07
REM Total runtime: 46905.4 s
REM Overall efficiency: 73.4615 %
REM
REM
REM
REM compiler GCC version 4.9.2
REM options -cpp -iprefix /lustre/shared/ucl/apps/gcc/4.9.2/bin/../lib/gcc/x86_64-unknown-linux-gnu/4.9.2/ -mtune=corei7 -march=x86-64 -g -Og
REM COMMAND_LINE
REM seed 2104888365 -1829592816 136656190 1470658973 353826235 196387624 -272477567 29725627 1725120380 1312748262 455437541 -1138611814
REM
REM S 3|1.8|5|6|7|30:31:32(qc=5)
REM O 2|1.5|12|13|15|20:21(qc=5)
REM Li 1|1.3|8|9|10|10U:20(qc=5)
REM Fe 3|2.2|2.0|1.0|8|9|10|40:41:32(qc=5)
REM Fe d:4.0 
REM
CELL 1.54180    4.66133    7.30783   19.26817   90.00000   90.00000  128.44598
LATT -1
SFAC Li O  S  Fe 
Li     1 -0.0491210000000  0.4261590000000  0.1327090000000 1.0  -0.11
Li     1  0.4508790000000  0.4261590000000 -0.1327090000000 1.0  -0.11
Li     1 -0.3852230000000  0.4696370000000 -0.4512010000000 1.0  -0.00
Li     1  0.1147770000000  0.4696370000000  0.4512010000000 1.0  -0.00
Li     1 -0.1299410000000 -0.1083410000000 -0.0852750000000 1.0  -0.21
Li     1  0.3700590000000 -0.1083410000000  0.0852750000000 1.0  -0.21
Li     1 -0.1753580000000  0.2373230000000 -0.1961320000000 1.0   0.01
Li     1  0.3246420000000  0.2373230000000  0.1961320000000 1.0   0.01
O      2  0.1317050000000 -0.4956540000000 -0.1397980000000 1.0   0.09
O      2 -0.3682950000000 -0.4956540000000  0.1397980000000 1.0   0.09
O      2  0.1373290000000 -0.6039830000000 -0.4528670000000 1.0  -0.00
O      2 -0.3626710000000 -0.6039830000000  0.4528670000000 1.0  -0.00
S      3 -0.3298570000000  0.0625240000000  0.1926650000000 1.0  -0.00
S      3 -0.8298570000000  0.0625240000000 -0.1926650000000 1.0  -0.00
S      3 -0.6272780000000  0.1261160000000  0.4833150000000 1.0   0.00
S      3 -0.1272780000000  0.1261160000000 -0.4833150000000 1.0   0.00
Fe     4  0.6025230000000  0.5640480000000  0.0401440000000 1.0   3.61
Fe     4  0.1025230000000  0.5640480000000 -0.0401440000000 1.0   3.61
Fe     4 -0.3353520000000 -0.2422680000000  0.1770890000000 1.0   3.17
Fe     4  0.1646480000000 -0.2422680000000 -0.1770890000000 1.0   3.17
END
