TITL LFSO-Li6FeS3O-201027-142144-e39240 0.0575 616.138863 -6.81861585E+003 6.00042 6.75113 22 (Pm) n - 1
REM
REM Run started: Tue, 27 Oct 2020 18:59:37 +0000 in /lustre/scratch/uccabz1/launch_tmp/launcher_2020-10-27-14-21-41-738670
REM CASTEP 20.1 from code version af48c487+ pr-geom-scf-spinfix Tue Jun 2 15:39:59 2020 +0100
REM Functional Perdew Burke Ernzerhof Relativity Koelling-Harmon Dispersion off
REM Cut-off 340.0000 eV Grid scale 1.7500 Gmax 16.5316 1/A FBSC none
REM MP grid 2 3 3 Offset 0.000 0.000 0.000 No. kpts 5 Spacing 0.07
REM Total runtime: 18426.8 s
REM Overall efficiency: 74.75 %
REM
REM
REM
REM compiler GCC version 4.9.2
REM options -cpp -iprefix /lustre/shared/ucl/apps/gcc/4.9.2/bin/../lib/gcc/x86_64-unknown-linux-gnu/4.9.2/ -mtune=corei7 -march=x86-64 -g -Og
REM COMMAND_LINE
REM seed 719947994 916678771 -2002843647 -1093551050 2024333660 -1268764995 -473094996 1697711441 1293673903 -707787953 -1651054627 -1956956336
REM
REM S 3|1.8|5|6|7|30:31:32(qc=5)
REM O 2|1.5|12|13|15|20:21(qc=5)
REM Li 1|1.3|8|9|10|10U:20(qc=5)
REM Fe 3|2.2|2.0|1.0|8|9|10|40:41:32(qc=5)
REM Fe d:4.0 
REM
CELL 1.54180   16.32331    6.73029    6.97739  126.50629   90.00000   90.00000
LATT -1
SFAC Li O  S  Fe 
Li     1 -0.1237960000000  0.0223700000000 -0.4020070000000 1.0  -0.11
Li     1  0.1237960000000  0.0223700000000 -0.4020070000000 1.0  -0.11
Li     1  0.3051960000000 -0.1703200000000  0.5288770000000 1.0  -0.00
Li     1 -0.3051960000000 -0.1703200000000  0.5288770000000 1.0  -0.00
Li     1  0.1669560000000 -0.4249140000000  0.1004750000000 1.0  -0.08
Li     1 -0.1669560000000 -0.4249140000000  0.1004750000000 1.0  -0.08
Li     1 -0.2642560000000  0.3495850000000 -0.3928890000000 1.0  -0.01
Li     1  0.2642560000000  0.3495850000000 -0.3928890000000 1.0  -0.01
Li     1  0.2093160000000 -0.1411350000000 -0.1504410000000 1.0  -0.01
Li     1 -0.2093160000000 -0.1411350000000 -0.1504410000000 1.0  -0.01
Li     1  0.2637900000000  0.3085470000000  0.2329780000000 1.0   0.00
Li     1 -0.2637900000000  0.3085470000000  0.2329780000000 1.0   0.00
O      2 -0.2240680000000  0.5863160000000 -0.4707730000000 1.0   0.00
O      2  0.2240680000000  0.5863160000000 -0.4707730000000 1.0   0.00
S      3  0.2923540000000 -0.0513720000000  0.2286780000000 1.0  -0.00
S      3 -0.2923540000000 -0.0513720000000  0.2286780000000 1.0  -0.00
S      3 -0.1594530000000 -0.0177140000000  0.2404850000000 1.0   0.01
S      3  0.1594530000000 -0.0177140000000  0.2404850000000 1.0   0.01
S      3 -0.2389410000000  0.2182920000000 -0.1407120000000 1.0  -0.00
S      3  0.2389410000000  0.2182920000000 -0.1407120000000 1.0  -0.00
Fe     4 -0.0974630000000 -0.4372030000000 -0.5200720000000 1.0   3.20
Fe     4  0.0974630000000 -0.4372030000000 -0.5200720000000 1.0   3.20
END
