TITL LFSO-Li3FeS2O-201023-041804-abcceb 0.0761 383.247129 -7.51892345E+003 -6.99811 9.69080 21 (P-1) n - 1
REM
REM Run started: Sat, 24 Oct 2020 07:24:11 +0100 in /lustre/scratch/uccabz1/launch_tmp/launcher_2020-10-23-03-18-02-701133
REM CASTEP 20.1 from code version af48c487+ pr-geom-scf-spinfix Tue Jun 2 15:39:59 2020 +0100
REM Functional Perdew Burke Ernzerhof Relativity Koelling-Harmon Dispersion off
REM Cut-off 340.0000 eV Grid scale 1.7500 Gmax 16.5316 1/A FBSC none
REM MP grid 5 2 2 Offset 0.000 0.000 0.000 No. kpts 10 Spacing 0.07
REM Total runtime: 104718 s
REM Overall efficiency: 84.6667 %
REM
REM
REM
REM compiler GCC version 4.9.2
REM options -cpp -iprefix /lustre/shared/ucl/apps/gcc/4.9.2/bin/../lib/gcc/x86_64-unknown-linux-gnu/4.9.2/ -mtune=corei7 -march=x86-64 -g -Og
REM COMMAND_LINE
REM seed -170084470 -1503268712 412502764 -582334250 1562620857 -570835677 -1032898780 -269339391 -30058834 -1223217995 275927596 -1944619341
REM
REM S 3|1.8|5|6|7|30:31:32(qc=5)
REM O 2|1.5|12|13|15|20:21(qc=5)
REM Li 1|1.3|8|9|10|10U:20(qc=5)
REM Fe 3|2.2|2.0|1.0|8|9|10|40:41:32(qc=5)
REM Fe d:4.0 
REM
CELL 1.54180    3.83177    7.16191   16.91012   85.17074  121.39135  104.33118
LATT -1
SFAC Li O  S  Fe 
Li     1  0.0932350000000 -0.0007790000000  0.3331950000000 1.0   0.02
Li     1 -0.0932350000000  0.0007790000000 -0.3331950000000 1.0   0.02
Li     1 -0.3460670000000  0.1113910000000  0.1103760000000 1.0   0.02
Li     1  0.3460670000000 -0.1113910000000 -0.1103760000000 1.0   0.02
Li     1 -0.2183100000000 -0.1839450000000  0.0552360000000 1.0  -0.04
Li     1  0.2183100000000  0.1839450000000 -0.0552360000000 1.0  -0.04
Li     1 -0.2692620000000  0.3545890000000 -0.2605510000000 1.0   0.05
Li     1  0.2692620000000 -0.3545890000000  0.2605510000000 1.0   0.05
Li     1  0.0000000000000 -0.5000000000000 -0.5000000000000 1.0  -0.04
O      2  0.4884170000000  0.0970710000000 -0.3115440000000 1.0  -0.02
O      2 -0.4884170000000 -0.0970710000000  0.3115440000000 1.0  -0.02
O      2 -0.5000000000000  0.0000000000000  0.0000000000000 1.0  -0.01
S      3  0.3575400000000 -0.4671790000000 -0.1231830000000 1.0  -0.07
S      3 -0.3575400000000  0.4671790000000  0.1231830000000 1.0  -0.07
S      3 -0.3097640000000 -0.0074410000000 -0.2052450000000 1.0  -0.06
S      3  0.3097640000000  0.0074410000000  0.2052450000000 1.0  -0.06
S      3  0.3830610000000  0.3745330000000  0.3623790000000 1.0  -0.08
S      3 -0.3830610000000 -0.3745330000000 -0.3623790000000 1.0  -0.08
Fe     4 -0.3765120000000  0.3358570000000  0.2580210000000 1.0  -3.78
Fe     4  0.3765120000000 -0.3358570000000 -0.2580210000000 1.0  -3.78
Fe     4  0.0000000000000  0.5000000000000  0.0000000000000 1.0   0.94
END
