TITL LFSO-Li2FeSO-201025-023220-7c20c6 -0.1348 398.659285 -8.01229228E+003 8.00000 15.0101 20 (R3) n - 1
REM
REM Run started: Mon, 26 Oct 2020 12:01:03 +0000 in /scratch/scratch/uccabz1/launch_tmp/launcher_2020-10-25-02-32-18-116334
REM CASTEP 19.11| from code version Version unavailable
REM Functional Perdew Burke Ernzerhof Relativity Koelling-Harmon Dispersion off
REM Cut-off 340.0000 eV Grid scale 1.7500 Gmax 16.5316 1/A FBSC none
REM MP grid 3 3 3 Offset 0.000 0.000 0.000 No. kpts 6 Spacing 0.07
REM Total runtime: 131311 s
REM Overall efficiency: 98.3333 %
REM
REM
REM
REM compiler GCC version 4.9.2
REM options -cpp -iprefix /scratch/UCL/applications/gcc/4.9.2/bin/../lib/gcc/x86_64-unknown-linux-gnu/4.9.2/ -mtune=corei7 -march=x86-64 -g -O2
REM COMMAND_LINE
REM seed -602593390 -1213226516 -1147385272 -565336915 257027912 1670640003 -758780271 702451608 -830503152 651891254 -260315276 517910265
REM
REM S 3|1.8|5|6|7|30:31:32(qc=5)
REM O 2|1.5|12|13|15|20:21(qc=5)
REM Li 1|1.3|8|9|10|10U:20(qc=5)
REM Fe 3|2.2|2.0|1.0|8|9|10|40:41:32(qc=5)
REM Fe d:4.0 
REM
CELL 1.54180   10.59701   10.59701   10.59701   37.66837   37.66836   37.66836
LATT -1
SFAC Li O  S  Fe 
Li     1  0.1549810000000 -0.3780670000000  0.3563610000000 1.0  -0.02
Li     1  0.3563610000000  0.1549810000000 -0.3780670000000 1.0  -0.02
Li     1 -0.3780670000000  0.3563610000000  0.1549810000000 1.0  -0.02
Li     1 -0.1493400000000  0.2426620000000 -0.1953690000000 1.0  -0.01
Li     1 -0.1953690000000 -0.1493400000000  0.2426620000000 1.0  -0.01
Li     1  0.2426620000000 -0.1953690000000 -0.1493400000000 1.0  -0.01
Li     1  0.3051690000000  0.3051690000000  0.3051690000000 1.0   0.01
Li     1  0.0172260000000  0.0172260000000  0.0172260000000 1.0   0.07
O      2  0.1690670000000  0.1197650000000 -0.3206630000000 1.0   0.01
O      2 -0.3206630000000  0.1690670000000  0.1197650000000 1.0   0.01
O      2  0.1197650000000 -0.3206630000000  0.1690670000000 1.0   0.01
O      2  0.4189860000000  0.4189860000000  0.4189860000000 1.0   0.16
S      3 -0.0011990000000 -0.1268780000000 -0.5254750000000 1.0  -0.02
S      3 -0.5254750000000 -0.0011990000000 -0.1268780000000 1.0  -0.02
S      3 -0.1268780000000 -0.5254750000000 -0.0011990000000 1.0  -0.02
S      3 -0.4669110000000 -0.4669110000000 -0.4669110000000 1.0   0.15
Fe     4  0.2241250000000 -0.4952660000000 -0.3142010000000 1.0   3.72
Fe     4 -0.3142010000000  0.2241250000000 -0.4952660000000 1.0   3.72
Fe     4 -0.4952660000000 -0.3142010000000  0.2241250000000 1.0   3.72
Fe     4  0.1232800000000  0.1232800000000  0.1232800000000 1.0  -3.43
END
