TITL LFSO-Li4Fe2S3O-201026-204828-7df2a3 -0.0470 179.095624 -3.87065845E+003 7.99763 8.12164 10 (Imm2) n - 1
REM
REM Run started: Mon, 26 Oct 2020 21:43:34 +0000 in /scratch/scratch/uccabz1/launch_tmp/launcher_2020-10-26-20-48-27-110263
REM CASTEP 19.11| from code version Version unavailable
REM Functional Perdew Burke Ernzerhof Relativity Koelling-Harmon Dispersion off
REM Cut-off 340.0000 eV Grid scale 1.7500 Gmax 16.5316 1/A FBSC none
REM MP grid 4 3 4 Offset 0.000 0.000 0.000 No. kpts 24 Spacing 0.07
REM Total runtime: 3358.53 s
REM Overall efficiency: 75.5 %
REM
REM
REM
REM compiler GCC version 4.9.2
REM options -cpp -iprefix /scratch/UCL/applications/gcc/4.9.2/bin/../lib/gcc/x86_64-unknown-linux-gnu/4.9.2/ -mtune=corei7 -march=x86-64 -g -O2
REM COMMAND_LINE
REM seed 1529675515 -675128095 -1689141108 -1470121187 -1998242464 -471517186 389273245 -1439627047 -1073887203 -141638353 192596787 -673036776
REM
REM S 3|1.8|5|6|7|30:31:32(qc=5)
REM O 2|1.5|12|13|15|20:21(qc=5)
REM Li 1|1.3|8|9|10|10U:20(qc=5)
REM Fe 3|2.2|2.0|1.0|8|9|10|40:41:32(qc=5)
REM Fe d:4.0 
REM
CELL 1.54180    5.11838    8.30517    6.44544  130.11069  113.39414   90.00000
LATT -1
SFAC Li O  S  Fe 
Li     1 -0.1547030000000  0.4414380000000  0.1798610000000 1.0  -0.05
Li     1  0.3345640000000 -0.2615760000000  0.1798610000000 1.0  -0.05
Li     1  0.3345640000000  0.4414380000000  0.1798610000000 1.0  -0.05
Li     1 -0.1547030000000 -0.2615760000000  0.1798610000000 1.0  -0.05
O      2  0.2073470000000 -0.2926530000000 -0.5853070000000 1.0   0.15
S      3 -0.1411340000000  0.0807330000000 -0.2822690000000 1.0   0.13
S      3 -0.1411340000000 -0.3630010000000 -0.2822690000000 1.0   0.13
S      3 -0.5866810000000 -0.5866810000000 -0.1733630000000 1.0   0.08
Fe     4  0.3483860000000  0.0484890000000 -0.3032290000000 1.0   3.85
Fe     4  0.3483860000000 -0.3517170000000 -0.3032290000000 1.0   3.85
END
