TITL LFSO-LiFe3S4O-201028-155618-1fa40d -0.2950 487.653607 -8.87264121E+003 11.9889 17.0789 18 (Pm) n - 1
REM
REM Run started: Fri, 30 Oct 2020 19:59:37 +0000 in /lustre/scratch/uccabz1/launch_tmp/launcher_2020-10-30-11-46-28-110050
REM CASTEP 20.1 from code version af48c487+ pr-geom-scf-spinfix Tue Jun 2 15:39:59 2020 +0100
REM Functional Perdew Burke Ernzerhof Relativity Koelling-Harmon Dispersion off
REM Cut-off 340.0000 eV Grid scale 1.7500 Gmax 16.5316 1/A FBSC none
REM MP grid 5 3 1 Offset 0.000 0.000 0.000 No. kpts 8 Spacing 0.07
REM Total runtime: 186023 s
REM Overall efficiency: 86.9091 %
REM
REM
REM
REM compiler GCC version 4.9.2
REM options -cpp -iprefix /lustre/shared/ucl/apps/gcc/4.9.2/bin/../lib/gcc/x86_64-unknown-linux-gnu/4.9.2/ -mtune=corei7 -march=x86-64 -g -Og
REM COMMAND_LINE
REM seed 46625445 -1303158345 538112858 -293540699 147098456 -470482997 -515935960 -1779630985 1493748592 -448611127 -703840284 1230931228
REM
REM S 3|1.8|5|6|7|30:31:32(qc=5)
REM O 2|1.5|12|13|15|20:21(qc=5)
REM Li 1|1.3|8|9|10|10U:20(qc=5)
REM Fe 3|2.2|2.0|1.0|8|9|10|40:41:32(qc=5)
REM Fe d:4.0 
REM
CELL 1.54180    3.85498    7.66874   18.89865   90.00000   90.00000  119.20970
LATT -1
SFAC Li O  S  Fe 
Li     1  0.1387410000000 -0.3709140000000  0.2308600000000 1.0  -0.02
Li     1  0.1387410000000 -0.3709140000000 -0.2308600000000 1.0  -0.02
O      2 -0.2999180000000 -0.3124450000000  0.2682720000000 1.0  -0.02
O      2 -0.2999180000000 -0.3124450000000 -0.2682720000000 1.0  -0.02
S      3 -0.1726570000000  0.2878950000000  0.3916600000000 1.0   0.02
S      3 -0.1726570000000  0.2878950000000 -0.3916600000000 1.0   0.02
S      3 -0.1709350000000 -0.1910930000000 -0.3437400000000 1.0  -0.04
S      3 -0.1709350000000 -0.1910930000000  0.3437400000000 1.0  -0.04
S      3  0.2897240000000  0.1532900000000  0.1918310000000 1.0   0.05
S      3  0.2897240000000  0.1532900000000 -0.1918310000000 1.0   0.05
S      3 -0.0952690000000  0.2934870000000  0.1789160000000 1.0   0.03
S      3 -0.0952690000000  0.2934870000000 -0.1789160000000 1.0   0.03
Fe     4  0.1785510000000  0.1789310000000  0.3139750000000 1.0  -0.53
Fe     4  0.1785510000000  0.1789310000000 -0.3139750000000 1.0  -0.53
Fe     4  0.2737520000000 -0.2517810000000 -0.4199060000000 1.0   3.27
Fe     4  0.2737520000000 -0.2517810000000  0.4199060000000 1.0   3.27
Fe     4 -0.4788840000000 -0.5174090000000 -0.4294070000000 1.0   3.24
Fe     4 -0.4788840000000 -0.5174090000000  0.4294070000000 1.0   3.24
END
