TITL LFSO-Li4Fe3S4O-201029-012831-73a396 -0.0299 228.158228 -5.03721522E+003 9.99993 10.3326 12 (R3) n - 1
REM
REM Run started: Thu, 29 Oct 2020 02:40:01 +0000 in /lustre/scratch/uccabz1/launch_tmp/launcher_2020-10-29-01-28-30-091507
REM CASTEP 20.1 from code version af48c487+ pr-geom-scf-spinfix Tue Jun 2 15:39:59 2020 +0100
REM Functional Perdew Burke Ernzerhof Relativity Koelling-Harmon Dispersion off
REM Cut-off 340.0000 eV Grid scale 1.7500 Gmax 16.5316 1/A FBSC none
REM MP grid 3 3 3 Offset 0.000 0.000 0.000 No. kpts 6 Spacing 0.07
REM Total runtime: 4469.1 s
REM Overall efficiency: 94.5714 %
REM
REM
REM
REM compiler GCC version 4.9.2
REM options -cpp -iprefix /lustre/shared/ucl/apps/gcc/4.9.2/bin/../lib/gcc/x86_64-unknown-linux-gnu/4.9.2/ -mtune=corei7 -march=x86-64 -g -Og
REM COMMAND_LINE
REM seed 839066373 963430451 1284367781 1467658314 -2121614792 1953862396 -1986021391 206010268 1436503908 1523881829 1816447501 1271470316
REM
REM S 3|1.8|5|6|7|30:31:32(qc=5)
REM O 2|1.5|12|13|15|20:21(qc=5)
REM Li 1|1.3|8|9|10|10U:20(qc=5)
REM Fe 3|2.2|2.0|1.0|8|9|10|40:41:32(qc=5)
REM Fe d:4.0 
REM
CELL 1.54180    6.18156    6.18156    6.18156   80.90957   80.90957   80.90957
LATT -1
SFAC Li O  S  Fe 
Li     1 -0.4104010000000  0.0967450000000  0.2371740000000 1.0  -0.06
Li     1  0.0967450000000  0.2371740000000 -0.4104010000000 1.0  -0.06
Li     1  0.2371740000000 -0.4104010000000  0.0967450000000 1.0  -0.06
Li     1 -0.3132670000000 -0.3132670000000 -0.3132670000000 1.0  -0.10
O      2  0.2998290000000  0.2998290000000  0.2998290000000 1.0  -0.04
S      3 -0.0832010000000 -0.1963200000000  0.3432890000000 1.0   0.05
S      3 -0.1963200000000  0.3432890000000 -0.0832010000000 1.0   0.05
S      3  0.3432890000000 -0.0832010000000 -0.1963200000000 1.0   0.05
S      3  0.4383570000000  0.4383570000000  0.4383570000000 1.0  -0.01
Fe     4 -0.2387700000000 -0.4614940000000  0.2230290000000 1.0   3.39
Fe     4 -0.4614940000000  0.2230290000000 -0.2387700000000 1.0   3.39
Fe     4  0.2230290000000 -0.2387700000000 -0.4614940000000 1.0   3.39
END
