TITL LFSO-Li4Fe3S3O2-201030-002319-0d8951 0.0105 416.653030 -1.03467351E+004 24.0000 24.1706 24 (R3) n - 1
REM
REM Run started: Fri, 30 Oct 2020 08:29:29 +0000 in /lustre/scratch/uccabz1/launch_tmp/launcher_2020-10-30-00-23-17-883401
REM CASTEP 20.1 from code version af48c487+ pr-geom-scf-spinfix Tue Jun 2 15:39:59 2020 +0100
REM Functional Perdew Burke Ernzerhof Relativity Koelling-Harmon Dispersion off
REM Cut-off 340.0000 eV Grid scale 1.7500 Gmax 16.5316 1/A FBSC none
REM MP grid 2 2 2 Offset 0.000 0.000 0.000 No. kpts 2 Spacing 0.07
REM Total runtime: 29626.5 s
REM Overall efficiency: 80.2727 %
REM
REM
REM
REM compiler GCC version 4.9.2
REM options -cpp -iprefix /lustre/shared/ucl/apps/gcc/4.9.2/bin/../lib/gcc/x86_64-unknown-linux-gnu/4.9.2/ -mtune=corei7 -march=x86-64 -g -Og
REM COMMAND_LINE
REM seed -1661031838 481692216 -908522824 1359230822 -205142120 319845462 1144686194 -5890542 20145841 -757688791 1016488107 948561931
REM
REM S 3|1.8|5|6|7|30:31:32(qc=5)
REM O 2|1.5|12|13|15|20:21(qc=5)
REM Li 1|1.3|8|9|10|10U:20(qc=5)
REM Fe 3|2.2|2.0|1.0|8|9|10|40:41:32(qc=5)
REM Fe d:4.0 
REM
CELL 1.54180    7.59908    7.59908    7.59908   78.80397   78.80397   78.80397
LATT -1
SFAC Li O  S  Fe 
Li     1  0.4413470000000  0.1540390000000 -0.4623380000000 1.0   0.02
Li     1 -0.4623380000000  0.4413470000000  0.1540390000000 1.0   0.02
Li     1  0.1540390000000 -0.4623380000000  0.4413470000000 1.0   0.02
Li     1  0.2921320000000 -0.1503730000000 -0.4516020000000 1.0  -0.02
Li     1 -0.4516020000000  0.2921320000000 -0.1503730000000 1.0  -0.02
Li     1 -0.1503730000000 -0.4516020000000  0.2921320000000 1.0  -0.02
Li     1  0.2490280000000  0.2490280000000  0.2490280000000 1.0  -0.06
Li     1 -0.2922890000000 -0.2922890000000 -0.2922890000000 1.0   0.05
O      2  0.1098520000000 -0.5007560000000  0.1874520000000 1.0   0.15
O      2  0.1874520000000  0.1098520000000 -0.5007560000000 1.0   0.15
O      2 -0.5007560000000  0.1874520000000  0.1098520000000 1.0   0.15
O      2  0.0066450000000  0.0066450000000  0.0066450000000 1.0   0.18
S      3 -0.2086360000000  0.4339920000000 -0.0993990000000 1.0   0.15
S      3 -0.0993990000000 -0.2086360000000  0.4339920000000 1.0   0.15
S      3  0.4339920000000 -0.0993990000000 -0.2086360000000 1.0   0.15
S      3 -0.2906840000000  0.2870870000000  0.4103550000000 1.0   0.11
S      3  0.4103550000000 -0.2906840000000  0.2870870000000 1.0   0.11
S      3  0.2870870000000  0.4103550000000 -0.2906840000000 1.0   0.11
Fe     4  0.1333710000000 -0.2198930000000  0.1330710000000 1.0   3.80
Fe     4  0.1330710000000  0.1333710000000 -0.2198930000000 1.0   3.80
Fe     4 -0.2198930000000  0.1330710000000  0.1333710000000 1.0   3.80
Fe     4 -0.0456780000000  0.0711000000000  0.4671520000000 1.0   3.73
Fe     4  0.4671520000000 -0.0456780000000  0.0711000000000 1.0   3.73
Fe     4  0.0711000000000  0.4671520000000 -0.0456780000000 1.0   3.73
END
