TITL LFSO-Li2FeSO-201025-173021-c5e43f 0.0341 613.213006 -8.00803546E+003 12.0000 16.5132 20 (Cm) n - 1
REM
REM Run started: Sun, 25 Oct 2020 23:02:26 +0000 in /lustre/scratch/uccabz1/launch_tmp/launcher_2020-10-25-17-30-20-139177
REM CASTEP 20.1 from code version af48c487+ pr-geom-scf-spinfix Tue Jun 2 15:39:59 2020 +0100
REM Functional Perdew Burke Ernzerhof Relativity Koelling-Harmon Dispersion off
REM Cut-off 340.0000 eV Grid scale 1.7500 Gmax 16.5316 1/A FBSC none
REM MP grid 3 2 2 Offset 0.000 0.000 0.000 No. kpts 5 Spacing 0.07
REM Total runtime: 21951.6 s
REM Overall efficiency: 74.1667 %
REM
REM
REM
REM compiler GCC version 4.9.2
REM options -cpp -iprefix /lustre/shared/ucl/apps/gcc/4.9.2/bin/../lib/gcc/x86_64-unknown-linux-gnu/4.9.2/ -mtune=corei7 -march=x86-64 -g -Og
REM COMMAND_LINE
REM seed 631177324 -1938886206 -762535729 248100240 307314724 -279894687 1629279555 -461291369 -595170450 808172347 1462424182 249135892
REM
REM S 3|1.8|5|6|7|30:31:32(qc=5)
REM O 2|1.5|12|13|15|20:21(qc=5)
REM Li 1|1.3|8|9|10|10U:20(qc=5)
REM Fe 3|2.2|2.0|1.0|8|9|10|40:41:32(qc=5)
REM Fe d:4.0 
REM
CELL 1.54180    5.83985    9.65836   12.00007   84.60781   71.89033   72.40291
LATT -1
SFAC Li O  S  Fe 
Li     1 -0.2438860000000 -0.4711570000000  0.4157040000000 1.0  -0.03
Li     1  0.2849570000000  0.4711570000000  0.4157040000000 1.0  -0.03
Li     1 -0.4263770000000  0.3110220000000 -0.1548990000000 1.0  -0.01
Li     1 -0.1153550000000 -0.3110220000000 -0.1548990000000 1.0  -0.01
Li     1 -0.4558270000000  0.3674470000000  0.5901770000000 1.0   0.05
Li     1 -0.0883800000000 -0.3674470000000  0.5901770000000 1.0   0.05
Li     1 -0.0383990000000  0.3889350000000 -0.3777270000000 1.0   0.05
Li     1  0.3505360000000 -0.3889350000000 -0.3777270000000 1.0   0.05
O      2 -0.3011580000000 -0.4692860000000 -0.4295480000000 1.0  -0.36
O      2  0.2295560000000  0.4692860000000 -0.4295480000000 1.0  -0.36
O      2  0.0237140000000 -0.3024420000000 -0.3041730000000 1.0  -0.70
O      2 -0.2787280000000  0.3024420000000 -0.3041730000000 1.0  -0.70
S      3 -0.2453660000000 -0.3426690000000  0.0500940000000 1.0   0.05
S      3  0.4119650000000  0.3426690000000  0.0500940000000 1.0   0.05
S      3 -0.2918360000000  0.3208360000000  0.3152310000000 1.0   0.08
S      3  0.0290000000000 -0.3208360000000  0.3152310000000 1.0   0.08
Fe     4  0.0889630000000  0.5530610000000  0.1445060000000 1.0   3.60
Fe     4 -0.3579760000000 -0.5530610000000  0.1445060000000 1.0   3.60
Fe     4  0.0948530000000  0.2762520000000  0.1909550000000 1.0   3.26
Fe     4  0.3711050000000 -0.2762520000000  0.1909550000000 1.0   3.26
END
