TITL LFSO-Li2Fe4S4O-201023-065447-20659b -0.0369 618.281411 -1.09986863E+004 28.0043 29.1090 22 (Pc) n - 1
REM
REM Run started: Fri, 23 Oct 2020 13:42:23 +0100 in /lustre/scratch/uccabz1/launch_tmp/launcher_2020-10-23-05-54-45-988612
REM CASTEP 20.1 from code version af48c487+ pr-geom-scf-spinfix Tue Jun 2 15:39:59 2020 +0100
REM Functional Perdew Burke Ernzerhof Relativity Koelling-Harmon Dispersion off
REM Cut-off 340.0000 eV Grid scale 1.7500 Gmax 16.5316 1/A FBSC none
REM MP grid 3 2 2 Offset 0.000 0.000 0.000 No. kpts 3 Spacing 0.07
REM Total runtime: 27425.1 s
REM Overall efficiency: 74.0833 %
REM
REM
REM
REM compiler GCC version 4.9.2
REM options -cpp -iprefix /lustre/shared/ucl/apps/gcc/4.9.2/bin/../lib/gcc/x86_64-unknown-linux-gnu/4.9.2/ -mtune=corei7 -march=x86-64 -g -Og
REM COMMAND_LINE
REM seed -2088375080 2030448957 -726330089 1366918238 1170049125 -1220283063 -11634898 -92427617 -899044342 -908443823 123019408 1035236311
REM
REM S 3|1.8|5|6|7|30:31:32(qc=5)
REM O 2|1.5|12|13|15|20:21(qc=5)
REM Li 1|1.3|8|9|10|10U:20(qc=5)
REM Fe 3|2.2|2.0|1.0|8|9|10|40:41:32(qc=5)
REM Fe d:4.0 
REM
CELL 1.54180    7.92455   11.05456   10.59608   90.00000   90.00000  138.23495
LATT -1
SFAC Li O  S  Fe 
Li     1  0.5006380000000  0.3272920000000  0.1015700000000 1.0  -0.01
Li     1  0.0006380000000 -0.1727080000000 -0.1015700000000 1.0  -0.01
Li     1  0.0690660000000  0.0758220000000  0.4900170000000 1.0  -0.02
Li     1 -0.4309340000000  0.5758220000000 -0.4900170000000 1.0  -0.02
O      2  0.2765130000000  0.3226580000000 -0.4696700000000 1.0   0.07
O      2 -0.2234870000000 -0.1773420000000  0.4696700000000 1.0   0.07
S      3 -0.2491940000000  0.0990240000000  0.4069640000000 1.0  -0.11
S      3  0.2508060000000 -0.4009760000000 -0.4069640000000 1.0  -0.11
S      3  0.2296450000000 -0.3008250000000  0.2802600000000 1.0   0.01
S      3 -0.2703550000000  0.1991750000000 -0.2802600000000 1.0   0.01
S      3  0.2920120000000  0.4016750000000  0.0933900000000 1.0   0.16
S      3 -0.2079880000000 -0.0983250000000 -0.0933900000000 1.0   0.16
S      3 -0.3408790000000  0.2098510000000  0.0669590000000 1.0   0.06
S      3  0.1591210000000 -0.2901490000000 -0.0669590000000 1.0   0.06
Fe     4 -0.4678970000000 -0.2052760000000  0.4242530000000 1.0   3.28
Fe     4  0.0321030000000  0.2947240000000 -0.4242530000000 1.0   3.28
Fe     4 -0.0661350000000  0.2269180000000  0.2140970000000 1.0   3.71
Fe     4  0.4338650000000 -0.2730820000000 -0.2140970000000 1.0   3.71
Fe     4 -0.2598570000000  0.0847690000000 -0.1032870000000 1.0   3.63
Fe     4  0.2401430000000 -0.4152310000000  0.1032870000000 1.0   3.63
Fe     4 -0.0875640000000  0.4135330000000 -0.1209480000000 1.0   3.22
Fe     4  0.4124360000000 -0.0864670000000  0.1209480000000 1.0   3.22
END
