TITL LFSO-Li2Fe3S2O2-201022-122833-ba9d10 0.0792 363.419960 -8.93832865E+003 -23.9916 24.2886 18 (Pc) n - 1
REM
REM Run started: Thu, 22 Oct 2020 17:28:47 +0100 in /lustre/scratch/uccabz1/launch_tmp/launcher_2020-10-22-11-28-31-404922
REM CASTEP 20.1 from code version af48c487+ pr-geom-scf-spinfix Tue Jun 2 15:39:59 2020 +0100
REM Functional Perdew Burke Ernzerhof Relativity Koelling-Harmon Dispersion off
REM Cut-off 340.0000 eV Grid scale 1.7500 Gmax 16.5316 1/A FBSC none
REM MP grid 4 2 2 Offset 0.000 0.000 0.000 No. kpts 4 Spacing 0.07
REM Total runtime: 18983.7 s
REM Overall efficiency: 76.5833 %
REM
REM
REM
REM compiler GCC version 4.9.2
REM options -cpp -iprefix /lustre/shared/ucl/apps/gcc/4.9.2/bin/../lib/gcc/x86_64-unknown-linux-gnu/4.9.2/ -mtune=corei7 -march=x86-64 -g -Og
REM COMMAND_LINE
REM seed 1251274966 -1414951824 1514959428 -1618938736 283764411 460977049 -200097779 -2092348872 -2003225911 1477518827 -215051975 1414168260
REM
REM S 3|1.8|5|6|7|30:31:32(qc=5)
REM O 2|1.5|12|13|15|20:21(qc=5)
REM Li 1|1.3|8|9|10|10U:20(qc=5)
REM Fe 3|2.2|2.0|1.0|8|9|10|40:41:32(qc=5)
REM Fe d:4.0 
REM
CELL 1.54180    3.81601    9.52587   10.41112   90.00000  106.20319   90.00000
LATT -1
SFAC Li O  S  Fe 
Li     1  0.3693990000000  0.1060040000000  0.1797120000000 1.0  -0.01
Li     1 -0.1306010000000 -0.1060040000000 -0.3202880000000 1.0  -0.01
Li     1 -0.2655700000000  0.3504350000000  0.0109660000000 1.0   0.06
Li     1  0.2344300000000 -0.3504350000000 -0.4890340000000 1.0   0.06
O      2 -0.1212580000000 -0.2988760000000  0.3380570000000 1.0  -0.22
O      2  0.3787420000000  0.2988760000000 -0.1619430000000 1.0  -0.22
O      2 -0.1026990000000  0.4836090000000 -0.1046240000000 1.0  -0.22
O      2  0.3973010000000 -0.4836090000000  0.3953760000000 1.0  -0.22
S      3  0.2146640000000 -0.1241490000000  0.0886280000000 1.0  -0.11
S      3 -0.2853360000000  0.1241490000000 -0.4113720000000 1.0  -0.11
S      3 -0.1070510000000  0.2431850000000  0.2383300000000 1.0  -0.10
S      3  0.3929490000000 -0.2431850000000 -0.2616700000000 1.0  -0.10
Fe     4  0.3525390000000 -0.4747560000000 -0.1534040000000 1.0  -3.77
Fe     4 -0.1474610000000  0.4747560000000  0.3465960000000 1.0  -3.77
Fe     4  0.3390610000000 -0.2903050000000  0.2814130000000 1.0  -3.79
Fe     4 -0.1609390000000  0.2903050000000 -0.2185870000000 1.0  -3.79
Fe     4 -0.3801800000000 -0.1760380000000 -0.0391620000000 1.0  -3.86
Fe     4  0.1198200000000  0.1760380000000  0.4608380000000 1.0  -3.86
END
