TITL LFSO-Li3FeS2O-201025-043304-c645be 0.0603 342.486770 -7.51945947E+003 9.00000 10.0893 21 (P32) n - 1
REM
REM Run started: Sun, 25 Oct 2020 10:13:52 +0000 in /lustre/scratch/uccabz1/launch_tmp/launcher_2020-10-25-04-33-03-052873
REM CASTEP 20.1 from code version af48c487+ pr-geom-scf-spinfix Tue Jun 2 15:39:59 2020 +0100
REM Functional Perdew Burke Ernzerhof Relativity Koelling-Harmon Dispersion off
REM Cut-off 340.0000 eV Grid scale 1.7500 Gmax 16.5316 1/A FBSC none
REM MP grid 2 3 3 Offset 0.000 0.000 0.000 No. kpts 5 Spacing 0.07
REM Total runtime: 21123.3 s
REM Overall efficiency: 83.2222 %
REM
REM
REM
REM compiler GCC version 4.9.2
REM options -cpp -iprefix /lustre/shared/ucl/apps/gcc/4.9.2/bin/../lib/gcc/x86_64-unknown-linux-gnu/4.9.2/ -mtune=corei7 -march=x86-64 -g -Og
REM COMMAND_LINE
REM seed 1267042455 871688040 819142421 1499852003 1958325197 -1831001415 1424571853 1910991291 1706902755 488401372 624884537 -789702439
REM
REM S 3|1.8|5|6|7|30:31:32(qc=5)
REM O 2|1.5|12|13|15|20:21(qc=5)
REM Li 1|1.3|8|9|10|10U:20(qc=5)
REM Fe 3|2.2|2.0|1.0|8|9|10|40:41:32(qc=5)
REM Fe d:4.0 
REM
CELL 1.54180    7.48564    7.26845    7.26845  120.00000   90.00000   90.00000
LATT -1
SFAC Li O  S  Fe 
Li     1 -0.3567140000000 -0.1086940000000 -0.2796220000000 1.0  -0.02
Li     1  0.3099520000000  0.2796220000000  0.1709280000000 1.0  -0.02
Li     1 -0.0233810000000 -0.1709280000000  0.1086940000000 1.0  -0.02
Li     1 -0.5080960000000 -0.0299990000000  0.1314690000000 1.0  -0.02
Li     1  0.1585710000000 -0.1314690000000 -0.1614680000000 1.0  -0.02
Li     1 -0.1747620000000  0.1614680000000  0.0299990000000 1.0  -0.02
Li     1 -0.0414540000000 -0.1765530000000  0.4982440000000 1.0  -0.03
Li     1 -0.3747870000000 -0.4982440000000  0.3252030000000 1.0  -0.03
Li     1  0.2918790000000 -0.3252030000000  0.1765530000000 1.0  -0.03
O      2 -0.1014180000000 -0.1056030000000 -0.1973650000000 1.0  -0.06
O      2 -0.4347510000000  0.1973650000000  0.0917620000000 1.0  -0.06
O      2  0.2319150000000 -0.0917620000000  0.1056030000000 1.0  -0.06
S      3  0.3507520000000 -0.3127480000000 -0.4568520000000 1.0   0.01
S      3  0.0174190000000  0.4568520000000  0.1441040000000 1.0   0.01
S      3 -0.3159150000000 -0.1441040000000  0.3127480000000 1.0   0.01
S      3  0.5202410000000  0.2881450000000 -0.1002230000000 1.0  -0.07
S      3  0.1869070000000  0.1002230000000 -0.6116310000000 1.0  -0.07
S      3 -0.1464260000000  0.6116310000000 -0.2881450000000 1.0  -0.07
Fe     4  0.4133120000000  0.0470600000000 -0.4262490000000 1.0   3.18
Fe     4  0.0799790000000  0.4262490000000  0.4733100000000 1.0   3.18
Fe     4 -0.2533540000000 -0.4733100000000 -0.0470600000000 1.0   3.18
END
