TITL LFSO-Li4Fe3S3O2-201021-223651-4245ff -0.0749 878.928521 -1.03394429E+004 -21.9941 22.6249 24 (Cm) n - 1
REM
REM Run started: Sat, 24 Oct 2020 10:40:28 +0100 in /lustre/scratch/uccabz1/launch_tmp/launcher_2020-10-23-09-40-26-112655
REM CASTEP 20.1 from code version af48c487+ pr-geom-scf-spinfix Tue Jun 2 15:39:59 2020 +0100
REM Functional Perdew Burke Ernzerhof Relativity Koelling-Harmon Dispersion off
REM Cut-off 340.0000 eV Grid scale 1.7500 Gmax 16.5316 1/A FBSC none
REM MP grid 2 2 3 Offset 0.000 0.000 0.000 No. kpts 5 Spacing 0.07
REM Total runtime: 97637.9 s
REM Overall efficiency: 73.5 %
REM
REM
REM
REM compiler GCC version 4.9.2
REM options -cpp -iprefix /scratch/UCL/applications/gcc/4.9.2/bin/../lib/gcc/x86_64-unknown-linux-gnu/4.9.2/ -mtune=corei7 -march=x86-64 -g -O2
REM COMMAND_LINE
REM seed -890504005 1147341068 1538941331 -265209056 1028547158 1595042882 1404227323 -856275064 -1884049345 205765055 1843984345 -1149069541
REM
REM S 3|1.8|5|6|7|30:31:32(qc=5)
REM O 2|1.5|12|13|15|20:21(qc=5)
REM Li 1|1.3|8|9|10|10U:20(qc=5)
REM Fe 3|2.2|2.0|1.0|8|9|10|40:41:32(qc=5)
REM Fe d:4.0 
REM
CELL 1.54180   11.53025   11.53025    6.81301   88.89447   88.89447  103.86925
LATT -1
SFAC Li O  S  Fe 
Li     1  0.5113050000000  0.2120160000000  0.2734570000000 1.0   0.01
Li     1  0.2120160000000  0.5113050000000  0.2734570000000 1.0   0.01
Li     1 -0.0774760000000  0.3037990000000 -0.1597140000000 1.0   0.01
Li     1  0.3037990000000 -0.0774760000000 -0.1597140000000 1.0   0.01
Li     1 -0.5533840000000 -0.3090400000000  0.2825480000000 1.0   0.01
Li     1 -0.3090400000000 -0.5533840000000  0.2825480000000 1.0   0.01
Li     1  0.3864520000000 -0.0422680000000  0.3767450000000 1.0   0.04
Li     1 -0.0422680000000  0.3864520000000  0.3767450000000 1.0   0.04
O      2  0.2988020000000 -0.3593070000000  0.3640740000000 1.0  -0.11
O      2 -0.3593070000000  0.2988020000000  0.3640740000000 1.0  -0.11
O      2 -0.1097830000000  0.3681190000000 -0.3907720000000 1.0  -0.18
O      2  0.3681190000000 -0.1097830000000 -0.3907720000000 1.0  -0.18
S      3 -0.3487230000000 -0.2308310000000  0.1661430000000 1.0  -0.03
S      3 -0.2308310000000 -0.3487230000000  0.1661430000000 1.0  -0.03
S      3  0.1005670000000 -0.2349270000000 -0.2203180000000 1.0  -0.02
S      3 -0.2349270000000  0.1005670000000 -0.2203180000000 1.0  -0.02
S      3  0.4055890000000  0.0607600000000  0.0822710000000 1.0  -0.03
S      3  0.0607600000000  0.4055890000000  0.0822710000000 1.0  -0.03
Fe     4 -0.0756860000000 -0.2730750000000 -0.0488300000000 1.0  -3.35
Fe     4 -0.2730750000000 -0.0756860000000 -0.0488300000000 1.0  -3.35
Fe     4 -0.4217010000000  0.0670800000000 -0.0814170000000 1.0  -3.63
Fe     4  0.0670800000000 -0.4217010000000 -0.0814170000000 1.0  -3.63
Fe     4  0.2647150000000 -0.2548340000000 -0.4497140000000 1.0  -3.73
Fe     4 -0.2548340000000  0.2647150000000 -0.4497140000000 1.0  -3.73
END
