TITL LFSO-Li2Fe3S2O2-201024-040446-7c90ae -0.0065 214.662913 -4.46794928E+003 11.9748 12.1038 9 (C2) n - 1
REM
REM Run started: Sat, 24 Oct 2020 09:19:31 +0100 in /lustre/scratch/uccabz1/launch_tmp/launcher_2020-10-24-03-04-44-761779
REM CASTEP 20.1 from code version af48c487+ pr-geom-scf-spinfix Tue Jun 2 15:39:59 2020 +0100
REM Functional Perdew Burke Ernzerhof Relativity Koelling-Harmon Dispersion off
REM Cut-off 340.0000 eV Grid scale 1.7500 Gmax 16.5316 1/A FBSC none
REM MP grid 5 2 2 Offset 0.000 0.000 0.000 No. kpts 8 Spacing 0.07
REM Total runtime: 18577.8 s
REM Overall efficiency: 91.0909 %
REM
REM
REM
REM compiler GCC version 4.9.2
REM options -cpp -iprefix /lustre/shared/ucl/apps/gcc/4.9.2/bin/../lib/gcc/x86_64-unknown-linux-gnu/4.9.2/ -mtune=corei7 -march=x86-64 -g -Og
REM COMMAND_LINE
REM seed -568267508 -507779523 2045150413 683002174 1408284279 -726499269 -994807907 202502815 -1009353404 1046986715 -1257205070 1784978310
REM
REM S 3|1.8|5|6|7|30:31:32(qc=5)
REM O 2|1.5|12|13|15|20:21(qc=5)
REM Li 1|1.3|8|9|10|10U:20(qc=5)
REM Fe 3|2.2|2.0|1.0|8|9|10|40:41:32(qc=5)
REM Fe d:4.0 
REM
CELL 1.54180    3.27420    8.31328    8.31328   85.57792   76.94963   76.94963
LATT -1
SFAC Li O  S  Fe 
Li     1  0.3620150000000  0.4870490000000 -0.1645540000000 1.0   0.00
Li     1 -0.3620150000000  0.1645540000000 -0.4870490000000 1.0   0.00
O      2  0.1339720000000  0.2926070000000  0.4295200000000 1.0   0.20
O      2 -0.1339720000000 -0.4295200000000 -0.2926070000000 1.0   0.20
S      3  0.2073530000000 -0.4776810000000  0.1319750000000 1.0   0.31
S      3 -0.2073530000000 -0.1319750000000  0.4776810000000 1.0   0.31
Fe     4  0.2749460000000 -0.2616230000000 -0.3530900000000 1.0   3.67
Fe     4 -0.2749460000000  0.3530900000000  0.2616230000000 1.0   3.67
Fe     4  0.0000000000000 -0.4464980000000  0.4464980000000 1.0   3.60
END
