TITL LFSO-Li6FeS3O-201027-194850-ce3bfe 0.0232 488.492239 -6.81309153E+003 6.30245 6.62561 22 (Pma2) n - 1
REM
REM Run started: Tue, 27 Oct 2020 21:31:30 +0000 in /lustre/scratch/uccabz1/launch_tmp/launcher_2020-10-27-19-48-48-527376
REM CASTEP 20.1 from code version af48c487+ pr-geom-scf-spinfix Tue Jun 2 15:39:59 2020 +0100
REM Functional Perdew Burke Ernzerhof Relativity Koelling-Harmon Dispersion off
REM Cut-off 340.0000 eV Grid scale 1.7500 Gmax 16.5316 1/A FBSC none
REM MP grid 3 2 2 Offset 0.000 0.000 0.000 No. kpts 2 Spacing 0.07
REM Total runtime: 6467.49 s
REM Overall efficiency: 72.3636 %
REM
REM
REM
REM compiler GCC version 4.9.2
REM options -cpp -iprefix /lustre/shared/ucl/apps/gcc/4.9.2/bin/../lib/gcc/x86_64-unknown-linux-gnu/4.9.2/ -mtune=corei7 -march=x86-64 -g -Og
REM COMMAND_LINE
REM seed 1565567982 -853453499 842540152 1851776741 -662448233 922853758 1219818703 -232451226 -581324433 -1934323524 743611726 219361964
REM
REM S 3|1.8|5|6|7|30:31:32(qc=5)
REM O 2|1.5|12|13|15|20:21(qc=5)
REM Li 1|1.3|8|9|10|10U:20(qc=5)
REM Fe 3|2.2|2.0|1.0|8|9|10|40:41:32(qc=5)
REM Fe d:4.0 
REM
CELL 1.54180    6.60590    7.20324   10.26592   90.00000   90.00000   90.00000
LATT -1
SFAC Li O  S  Fe 
Li     1  0.5587910000000  0.2925360000000  0.0460920000000 1.0  -0.00
Li     1 -0.5587910000000 -0.2925360000000  0.0460920000000 1.0  -0.00
Li     1  0.0587910000000 -0.2925360000000  0.0460920000000 1.0  -0.00
Li     1 -0.0587910000000  0.2925360000000  0.0460920000000 1.0  -0.00
Li     1 -0.0666360000000  0.3130710000000  0.3064940000000 1.0  -0.01
Li     1  0.0666360000000 -0.3130710000000  0.3064940000000 1.0  -0.01
Li     1  0.4333640000000 -0.3130710000000  0.3064940000000 1.0  -0.01
Li     1 -0.4333640000000  0.3130710000000  0.3064940000000 1.0  -0.01
Li     1  0.5005670000000 -0.2830620000000 -0.4015720000000 1.0  -0.02
Li     1 -0.5005670000000  0.2830620000000 -0.4015720000000 1.0  -0.02
Li     1  0.0005670000000  0.2830620000000 -0.4015720000000 1.0  -0.02
Li     1 -0.0005670000000 -0.2830620000000 -0.4015720000000 1.0  -0.02
O      2  0.2500000000000 -0.2989840000000  0.1677630000000 1.0   0.01
O      2 -0.2500000000000  0.2989840000000  0.1677630000000 1.0   0.01
S      3 -0.4964420000000 -0.3568560000000 -0.1754420000000 1.0   0.01
S      3  0.4964420000000  0.3568560000000 -0.1754420000000 1.0   0.01
S      3  0.0035580000000  0.3568560000000 -0.1754420000000 1.0   0.01
S      3 -0.0035580000000 -0.3568560000000 -0.1754420000000 1.0   0.01
S      3 -0.2500000000000 -0.3851730000000  0.4317000000000 1.0  -0.01
S      3  0.2500000000000  0.3851730000000  0.4317000000000 1.0  -0.01
Fe     4  0.2500000000000  0.0399800000000 -0.5374750000000 1.0   3.21
Fe     4 -0.2500000000000 -0.0399800000000 -0.5374750000000 1.0   3.21
END
