TITL LFSO-Li6FeSO3-201027-212429-6c77d4 -0.3605 338.279106 -7.35845294E+003 8.00000 8.20854 22 (P-1) n - 1
REM
REM Run started: Wed, 28 Oct 2020 09:43:19 +0000 in /scratch/scratch/uccabz1/launch_tmp/launcher_2020-10-28-01-37-52-242202
REM CASTEP 19.11| from code version Version unavailable
REM Functional Perdew Burke Ernzerhof Relativity Koelling-Harmon Dispersion off
REM Cut-off 340.0000 eV Grid scale 1.7500 Gmax 16.5316 1/A FBSC none
REM MP grid 4 3 3 Offset 0.000 0.000 0.000 No. kpts 18 Spacing 0.07
REM Total runtime: 48983.3 s
REM Overall efficiency: 93 %
REM
REM
REM
REM compiler GCC version 4.9.2
REM options -cpp -iprefix /scratch/UCL/applications/gcc/4.9.2/bin/../lib/gcc/x86_64-unknown-linux-gnu/4.9.2/ -mtune=corei7 -march=x86-64 -g -O2
REM COMMAND_LINE
REM seed 1075047007 725597714 -278321371 1814777252 -2038266020 390883826 -1412303839 502993974 47651398 -1269401590 -631287195 563769747
REM
REM S 3|1.8|5|6|7|30:31:32(qc=5)
REM O 2|1.5|12|13|15|20:21(qc=5)
REM Li 1|1.3|8|9|10|10U:20(qc=5)
REM Fe 3|2.2|2.0|1.0|8|9|10|40:41:32(qc=5)
REM Fe d:4.0 
REM
CELL 1.54180    5.61752    9.69513    9.78427  119.97675  109.20648  110.58089
LATT -1
SFAC Li O  S  Fe 
Li     1 -0.0348040000000 -0.2178650000000 -0.3599690000000 1.0  -0.00
Li     1  0.0348040000000  0.2178650000000  0.3599690000000 1.0  -0.00
Li     1 -0.2269330000000 -0.0835160000000  0.3363460000000 1.0  -0.02
Li     1  0.2269330000000  0.0835160000000 -0.3363460000000 1.0  -0.02
Li     1 -0.2648210000000  0.2814270000000 -0.0036410000000 1.0  -0.01
Li     1  0.2648210000000 -0.2814270000000  0.0036410000000 1.0  -0.01
Li     1  0.3100130000000  0.3803780000000 -0.0269570000000 1.0  -0.02
Li     1 -0.3100130000000 -0.3803780000000  0.0269570000000 1.0  -0.02
Li     1 -0.4517460000000  0.3624340000000 -0.2974380000000 1.0  -0.01
Li     1  0.4517460000000 -0.3624340000000  0.2974380000000 1.0  -0.01
Li     1  0.3284190000000  0.0428330000000  0.0112870000000 1.0  -0.03
Li     1 -0.3284190000000 -0.0428330000000 -0.0112870000000 1.0  -0.03
O      2  0.5593690000000  0.3595900000000 -0.1095430000000 1.0   0.01
O      2 -0.5593690000000 -0.3595900000000  0.1095430000000 1.0   0.01
O      2 -0.2039000000000 -0.1074360000000 -0.4370420000000 1.0   0.07
O      2  0.2039000000000  0.1074360000000  0.4370420000000 1.0   0.07
O      2  0.4190040000000 -0.0239810000000 -0.1861800000000 1.0   0.08
O      2 -0.4190040000000  0.0239810000000  0.1861800000000 1.0   0.08
S      3 -0.1947560000000 -0.2769110000000 -0.1478650000000 1.0   0.11
S      3  0.1947560000000  0.2769110000000  0.1478650000000 1.0   0.11
Fe     4  0.3206220000000  0.0390280000000  0.2682590000000 1.0   3.83
Fe     4 -0.3206220000000 -0.0390280000000 -0.2682590000000 1.0   3.83
END
