TITL LFSO-Li4Fe3S4O-201029-233048-2b49be -0.0009 566.858418 -1.00777405E+004 23.9972 24.3708 24 (P21/m) n - 1
REM
REM Run started: Fri, 30 Oct 2020 09:26:27 +0000 in /lustre/scratch/uccabz1/launch_tmp/launcher_2020-10-29-23-30-46-943268
REM CASTEP 20.1 from code version af48c487+ pr-geom-scf-spinfix Tue Jun 2 15:39:59 2020 +0100
REM Functional Perdew Burke Ernzerhof Relativity Koelling-Harmon Dispersion off
REM Cut-off 340.0000 eV Grid scale 1.7500 Gmax 16.5316 1/A FBSC none
REM MP grid 4 3 1 Offset 0.000 0.000 0.000 No. kpts 6 Spacing 0.07
REM Total runtime: 39706.7 s
REM Overall efficiency: 79.3333 %
REM
REM
REM
REM compiler GCC version 4.9.2
REM options -cpp -iprefix /lustre/shared/ucl/apps/gcc/4.9.2/bin/../lib/gcc/x86_64-unknown-linux-gnu/4.9.2/ -mtune=corei7 -march=x86-64 -g -Og
REM COMMAND_LINE
REM seed 1989576116 -929950977 483016856 -1692205211 -770315544 -574818896 1933873735 549684209 1467115408 -1707514479 -726554861 1618543137
REM
REM S 3|1.8|5|6|7|30:31:32(qc=5)
REM O 2|1.5|12|13|15|20:21(qc=5)
REM Li 1|1.3|8|9|10|10U:20(qc=5)
REM Fe 3|2.2|2.0|1.0|8|9|10|40:41:32(qc=5)
REM Fe d:4.0 
REM
CELL 1.54180    4.77826    6.87481   17.83598   90.00000   90.00000   75.35079
LATT -1
SFAC Li O  S  Fe 
Li     1 -0.3366770000000  0.1676620000000  0.0003630000000 1.0  -0.01
Li     1  0.3366770000000 -0.1676620000000  0.5003630000000 1.0  -0.01
Li     1  0.3366770000000 -0.1676620000000 -0.0003630000000 1.0  -0.01
Li     1 -0.3366770000000  0.1676620000000 -0.5003630000000 1.0  -0.01
Li     1  0.1462130000000 -0.0296370000000 -0.1686400000000 1.0   0.00
Li     1 -0.1462130000000  0.0296370000000  0.3313600000000 1.0   0.00
Li     1 -0.1462130000000  0.0296370000000  0.1686400000000 1.0   0.00
Li     1  0.1462130000000 -0.0296370000000 -0.3313600000000 1.0   0.00
O      2 -0.2090300000000 -0.1612040000000  0.2500000000000 1.0   0.13
O      2  0.2090300000000  0.1612040000000 -0.2500000000000 1.0   0.13
S      3  0.1748030000000  0.1675820000000 -0.0553660000000 1.0   0.17
S      3 -0.1748030000000 -0.1675820000000  0.4446340000000 1.0   0.17
S      3 -0.1748030000000 -0.1675820000000  0.0553660000000 1.0   0.17
S      3  0.1748030000000  0.1675820000000 -0.4446340000000 1.0   0.17
S      3  0.2199840000000 -0.3551330000000 -0.3885540000000 1.0   0.13
S      3 -0.2199840000000  0.3551330000000  0.1114460000000 1.0   0.13
S      3 -0.2199840000000  0.3551330000000  0.3885540000000 1.0   0.13
S      3  0.2199840000000 -0.3551330000000 -0.1114460000000 1.0   0.13
Fe     4  0.2365480000000  0.3431560000000 -0.1663790000000 1.0   3.76
Fe     4 -0.2365480000000 -0.3431560000000  0.3336210000000 1.0   3.76
Fe     4 -0.2365480000000 -0.3431560000000  0.1663790000000 1.0   3.76
Fe     4  0.2365480000000  0.3431560000000 -0.3336210000000 1.0   3.76
Fe     4  0.0000000000000  0.5000000000000  0.0000000000000 1.0   3.77
Fe     4  0.0000000000000 -0.5000000000000 -0.5000000000000 1.0   3.77
END
