TITL LFSO-Li2Fe2S2O-201021-233335-8aef97 0.0239 146.620220 -3.16638049E+003 6.29173 7.18926 7 (Pmm2) n - 1
REM
REM Run started: Thu, 22 Oct 2020 00:11:09 +0100 in /lustre/scratch/uccabz1/launch_tmp/launcher_2020-10-21-22-33-34-294061
REM CASTEP 20.1 from code version af48c487+ pr-geom-scf-spinfix Tue Jun 2 15:39:59 2020 +0100
REM Functional Perdew Burke Ernzerhof Relativity Koelling-Harmon Dispersion off
REM Cut-off 340.0000 eV Grid scale 1.7500 Gmax 16.5316 1/A FBSC none
REM MP grid 6 4 2 Offset 0.000 0.000 0.000 No. kpts 6 Spacing 0.07
REM Total runtime: 2573.26 s
REM Overall efficiency: 91.7143 %
REM
REM
REM
REM compiler GCC version 4.9.2
REM options -cpp -iprefix /lustre/shared/ucl/apps/gcc/4.9.2/bin/../lib/gcc/x86_64-unknown-linux-gnu/4.9.2/ -mtune=corei7 -march=x86-64 -g -Og
REM COMMAND_LINE
REM seed -1925652808 -1886784341 -584848007 2066634515 -24649706 -1308142307 -437174327 1092614483 -312595576 -2109591567 78601843 -192376925
REM
REM S 3|1.8|5|6|7|30:31:32(qc=5)
REM O 2|1.5|12|13|15|20:21(qc=5)
REM Li 1|1.3|8|9|10|10U:20(qc=5)
REM Fe 3|2.2|2.0|1.0|8|9|10|40:41:32(qc=5)
REM Fe d:4.0 
REM
CELL 1.54180    2.81021    4.29166   12.15707   90.00000   90.00000   90.00000
LATT -1
SFAC Li O  S  Fe 
Li     1 -0.5000000000000 -0.3249840000000  0.4080130000000 1.0   0.01
Li     1  0.5000000000000 -0.3249840000000 -0.4080130000000 1.0   0.01
O      2 -0.0000000000000  0.6987670000000 -0.5000000000000 1.0  -0.40
S      3  0.5000000000000  0.4460990000000  0.2094130000000 1.0   0.00
S      3  0.5000000000000  0.4460990000000 -0.2094130000000 1.0   0.00
Fe     4 -0.5000000000000 -0.0587260000000 -0.1377860000000 1.0   3.33
Fe     4 -0.5000000000000 -0.0587260000000  0.1377860000000 1.0   3.33
END
