TITL LFSO-Li4Fe3S4O-201029-074350-354160 0.0088 478.426498 -1.00802088E+004 23.9758 24.3694 24 (P-1) n - 1
REM
REM Run started: Fri, 30 Oct 2020 17:17:21 +0000 in /lustre/scratch/uccabz1/launch_tmp/launcher_2020-10-30-07-47-31-267157
REM CASTEP 20.1 from code version af48c487+ pr-geom-scf-spinfix Tue Jun 2 15:39:59 2020 +0100
REM Functional Perdew Burke Ernzerhof Relativity Koelling-Harmon Dispersion off
REM Cut-off 340.0000 eV Grid scale 1.7500 Gmax 16.5316 1/A FBSC none
REM MP grid 5 2 2 Offset 0.000 0.000 0.000 No. kpts 10 Spacing 0.07
REM Total runtime: 125550 s
REM Overall efficiency: 74.5 %
REM
REM
REM
REM compiler GCC version 4.9.2
REM options -cpp -iprefix /scratch/UCL/applications/gcc/4.9.2/bin/../lib/gcc/x86_64-unknown-linux-gnu/4.9.2/ -mtune=corei7 -march=x86-64 -g -O2
REM COMMAND_LINE
REM seed 815829847 553304622 1628450391 -633928396 -554992534 -887677631 4015096 1070030938 -1771864742 1478664252 -1853221396 907584214
REM
REM S 3|1.8|5|6|7|30:31:32(qc=5)
REM O 2|1.5|12|13|15|20:21(qc=5)
REM Li 1|1.3|8|9|10|10U:20(qc=5)
REM Fe 3|2.2|2.0|1.0|8|9|10|40:41:32(qc=5)
REM Fe d:4.0 
REM
CELL 1.54180    3.72197   16.26584   15.16019  138.89943  116.74129   86.04295
LATT -1
SFAC Li O  S  Fe 
Li     1  0.1114670000000 -0.5014450000000 -0.3742760000000 1.0  -0.07
Li     1 -0.1114670000000  0.5014450000000  0.3742760000000 1.0  -0.07
Li     1 -0.2698230000000 -0.1833570000000  0.1573800000000 1.0  -0.01
Li     1  0.2698230000000  0.1833570000000 -0.1573800000000 1.0  -0.01
Li     1  0.4173950000000  0.0434500000000 -0.3863760000000 1.0  -0.00
Li     1 -0.4173950000000 -0.0434500000000  0.3863760000000 1.0  -0.00
Li     1 -0.4036470000000 -0.2071250000000 -0.4319610000000 1.0  -0.00
Li     1  0.4036470000000  0.2071250000000  0.4319610000000 1.0  -0.00
O      2  0.2688640000000 -0.2462580000000  0.1682030000000 1.0   0.17
O      2 -0.2688640000000  0.2462580000000 -0.1682030000000 1.0   0.17
S      3  0.3545020000000  0.2698640000000  0.0968580000000 1.0   0.15
S      3 -0.3545020000000 -0.2698640000000 -0.0968580000000 1.0   0.15
S      3 -0.0789110000000 -0.4219140000000  0.2355320000000 1.0   0.10
S      3  0.0789110000000  0.4219140000000 -0.2355320000000 1.0   0.10
S      3 -0.1380480000000 -0.0722220000000  0.5658010000000 1.0   0.10
S      3  0.1380480000000  0.0722220000000 -0.5658010000000 1.0   0.10
S      3  0.7849570000000  0.2718150000000  0.3489080000000 1.0   0.13
S      3 -0.7849570000000 -0.2718150000000 -0.3489080000000 1.0   0.13
Fe     4 -0.1740370000000 -0.4113020000000 -0.0777860000000 1.0   3.83
Fe     4  0.1740370000000  0.4113020000000  0.0777860000000 1.0   3.83
Fe     4  0.0455200000000  0.2531370000000  0.2071150000000 1.0   3.78
Fe     4 -0.0455200000000 -0.2531370000000 -0.2071150000000 1.0   3.78
Fe     4  0.5348120000000  0.2857660000000 -0.2730620000000 1.0   3.82
Fe     4 -0.5348120000000 -0.2857660000000  0.2730620000000 1.0   3.82
END
