TITL LFSO-Li2FeSO-201025-004204-31a373 0.0459 311.323624 -6.01133692E+003 12.0000 12.3057 15 (R3) n - 1
REM
REM Run started: Sun, 25 Oct 2020 02:53:24 +0000 in /lustre/scratch/uccabz1/launch_tmp/launcher_2020-10-24-23-42-02-070060
REM CASTEP 20.1 from code version af48c487+ pr-geom-scf-spinfix Tue Jun 2 15:39:59 2020 +0100
REM Functional Perdew Burke Ernzerhof Relativity Koelling-Harmon Dispersion off
REM Cut-off 340.0000 eV Grid scale 1.7500 Gmax 16.5316 1/A FBSC none
REM MP grid 3 3 3 Offset 0.000 0.000 0.000 No. kpts 6 Spacing 0.07
REM Total runtime: 12624 s
REM Overall efficiency: 96.1429 %
REM
REM
REM
REM compiler GCC version 4.9.2
REM options -cpp -iprefix /lustre/shared/ucl/apps/gcc/4.9.2/bin/../lib/gcc/x86_64-unknown-linux-gnu/4.9.2/ -mtune=corei7 -march=x86-64 -g -Og
REM COMMAND_LINE
REM seed -1737924693 1279436650 -1790585137 895250493 679265666 234629536 1477303216 1717027806 571966267 -1755175207 1638568455 765051854
REM
REM S 3|1.8|5|6|7|30:31:32(qc=5)
REM O 2|1.5|12|13|15|20:21(qc=5)
REM Li 1|1.3|8|9|10|10U:20(qc=5)
REM Fe 3|2.2|2.0|1.0|8|9|10|40:41:32(qc=5)
REM Fe d:4.0 
REM
CELL 1.54180    7.55891    7.55891    7.55891   60.86091   60.86091   60.86091
LATT -1
SFAC Li O  S  Fe 
Li     1 -0.1695030000000  0.3153120000000 -0.4796810000000 1.0  -0.00
Li     1  0.3153120000000 -0.4796810000000 -0.1695030000000 1.0  -0.00
Li     1 -0.4796810000000 -0.1695030000000  0.3153120000000 1.0  -0.00
Li     1  0.2828750000000 -0.2000750000000  0.0166770000000 1.0  -0.04
Li     1 -0.2000750000000  0.0166770000000  0.2828750000000 1.0  -0.04
Li     1  0.0166770000000  0.2828750000000 -0.2000750000000 1.0  -0.04
O      2 -0.2823410000000  0.2215170000000  0.4111010000000 1.0   0.19
O      2  0.2215170000000  0.4111010000000 -0.2823410000000 1.0   0.19
O      2  0.4111010000000 -0.2823410000000  0.2215170000000 1.0   0.19
S      3 -0.0531150000000 -0.3433130000000  0.2913230000000 1.0   0.10
S      3 -0.3433130000000  0.2913230000000 -0.0531150000000 1.0   0.10
S      3  0.2913230000000 -0.0531150000000 -0.3433130000000 1.0   0.10
Fe     4 -0.3891680000000  0.4461480000000  0.1715440000000 1.0   3.76
Fe     4  0.4461480000000  0.1715440000000 -0.3891680000000 1.0   3.76
Fe     4  0.1715440000000 -0.3891680000000  0.4461480000000 1.0   3.76
END
