TITL LFSO-Li3FeS2O-201023-013552-570919 0.3745 333.214283 -5.01497864E+003 6.02583 6.89966 14 (C2/m) n - 1
REM
REM Run started: Fri, 23 Oct 2020 04:53:13 +0100 in /lustre/scratch/uccabz1/launch_tmp/launcher_2020-10-23-00-35-50-461905
REM CASTEP 20.1 from code version af48c487+ pr-geom-scf-spinfix Tue Jun 2 15:39:59 2020 +0100
REM Functional Perdew Burke Ernzerhof Relativity Koelling-Harmon Dispersion off
REM Cut-off 340.0000 eV Grid scale 1.7500 Gmax 16.5316 1/A FBSC none
REM MP grid 3 3 2 Offset 0.000 0.000 0.000 No. kpts 6 Spacing 0.07
REM Total runtime: 13006.9 s
REM Overall efficiency: 79.5 %
REM
REM
REM
REM compiler GCC version 4.9.2
REM options -cpp -iprefix /lustre/shared/ucl/apps/gcc/4.9.2/bin/../lib/gcc/x86_64-unknown-linux-gnu/4.9.2/ -mtune=corei7 -march=x86-64 -g -Og
REM COMMAND_LINE
REM seed -1133280648 -1591107795 -151889811 -658128026 511076682 1008591511 -1754925659 917456236 1667061609 1754861102 -1436672115 -1336829447
REM
REM S 3|1.8|5|6|7|30:31:32(qc=5)
REM O 2|1.5|12|13|15|20:21(qc=5)
REM Li 1|1.3|8|9|10|10U:20(qc=5)
REM Fe 3|2.2|2.0|1.0|8|9|10|40:41:32(qc=5)
REM Fe d:4.0 
REM
CELL 1.54180    8.27433    8.27433   11.13134   43.67706   43.67706   44.47498
LATT -1
SFAC Li O  S  Fe 
Li     1  0.0333920000000 -0.4537590000000  0.0559190000000 1.0   0.00
Li     1  0.4537590000000 -0.0333920000000 -0.0559190000000 1.0   0.00
Li     1 -0.0333920000000  0.4537590000000 -0.0559190000000 1.0   0.00
Li     1 -0.4537590000000  0.0333920000000  0.0559190000000 1.0   0.00
Li     1  0.5266730000000  0.5266730000000  0.2312220000000 1.0  -0.03
Li     1 -0.5266730000000 -0.5266730000000 -0.2312220000000 1.0  -0.03
O      2  0.2869620000000  0.2869620000000 -0.0464430000000 1.0   0.01
O      2 -0.2869620000000 -0.2869620000000  0.0464430000000 1.0   0.01
S      3 -0.3735630000000  0.1354450000000  0.2624010000000 1.0  -0.04
S      3 -0.1354450000000  0.3735630000000 -0.2624010000000 1.0  -0.04
S      3  0.3735630000000 -0.1354450000000 -0.2624010000000 1.0  -0.04
S      3  0.1354450000000 -0.3735630000000  0.2624010000000 1.0  -0.04
Fe     4  0.2382710000000  0.2382710000000 -0.4925090000000 1.0   3.11
Fe     4 -0.2382710000000 -0.2382710000000  0.4925090000000 1.0   3.11
END
