TITL LFSO-Li4Fe2S3O-201025-234628-ad51f7 0.0088 520.067178 -7.74541640E+003 -16.0000 16.2624 20 (P2) n - 1
REM
REM Run started: Mon, 26 Oct 2020 04:38:13 +0000 in /lustre/scratch/uccabz1/launch_tmp/launcher_2020-10-25-23-46-26-915787
REM CASTEP 20.1 from code version af48c487+ pr-geom-scf-spinfix Tue Jun 2 15:39:59 2020 +0100
REM Functional Perdew Burke Ernzerhof Relativity Koelling-Harmon Dispersion off
REM Cut-off 340.0000 eV Grid scale 1.7500 Gmax 16.5316 1/A FBSC none
REM MP grid 3 3 2 Offset 0.000 0.000 0.000 No. kpts 6 Spacing 0.07
REM Total runtime: 17579.3 s
REM Overall efficiency: 74.1111 %
REM
REM
REM
REM compiler GCC version 4.9.2
REM options -cpp -iprefix /lustre/shared/ucl/apps/gcc/4.9.2/bin/../lib/gcc/x86_64-unknown-linux-gnu/4.9.2/ -mtune=corei7 -march=x86-64 -g -Og
REM COMMAND_LINE
REM seed -1511260483 -1901015359 -1875389870 2136437979 294098072 1255961531 -1026837697 1753915856 -36279845 2001913150 -919814644 -1651702808
REM
REM S 3|1.8|5|6|7|30:31:32(qc=5)
REM O 2|1.5|12|13|15|20:21(qc=5)
REM Li 1|1.3|8|9|10|10U:20(qc=5)
REM Fe 3|2.2|2.0|1.0|8|9|10|40:41:32(qc=5)
REM Fe d:4.0 
REM
CELL 1.54180    6.28649    7.01609   11.99988  100.70217   90.00000   90.00000
LATT -1
SFAC Li O  S  Fe 
Li     1  0.1668430000000  0.3830140000000 -0.4134450000000 1.0  -0.01
Li     1  0.1668430000000 -0.3830140000000  0.4134450000000 1.0  -0.01
Li     1 -0.0188620000000  0.0396160000000 -0.0873390000000 1.0   0.03
Li     1 -0.0188620000000 -0.0396160000000  0.0873390000000 1.0   0.03
Li     1 -0.1462040000000 -0.0120350000000 -0.3148730000000 1.0   0.00
Li     1 -0.1462040000000  0.0120350000000  0.3148730000000 1.0   0.00
Li     1  0.0789750000000  0.3883770000000  0.1656370000000 1.0  -0.01
Li     1  0.0789750000000 -0.3883770000000 -0.1656370000000 1.0  -0.01
O      2  0.1174570000000 -0.1987410000000 -0.0438530000000 1.0  -0.16
O      2  0.1174570000000  0.1987410000000  0.0438530000000 1.0  -0.16
S      3 -0.3918890000000  0.0188820000000  0.1614520000000 1.0  -0.08
S      3 -0.3918890000000 -0.0188820000000 -0.1614520000000 1.0  -0.08
S      3  0.1312650000000 -0.2492390000000  0.2372220000000 1.0  -0.17
S      3  0.1312650000000  0.2492390000000 -0.2372220000000 1.0  -0.17
S      3  0.1022030000000 -0.2755990000000 -0.3830930000000 1.0  -0.08
S      3  0.1022030000000  0.2755990000000  0.3830930000000 1.0  -0.08
Fe     4  0.3197800000000  0.0433350000000  0.2840150000000 1.0  -3.73
Fe     4  0.3197800000000 -0.0433350000000 -0.2840150000000 1.0  -3.73
Fe     4  0.3484980000000  0.1813980000000 -0.0536310000000 1.0  -3.80
Fe     4  0.3484980000000 -0.1813980000000  0.0536310000000 1.0  -3.80
END
