TITL LFSO-Li2Fe2S2O-201022-065100-d32087 0.0224 297.248754 -6.33822637E+003 15.7003 15.9122 14 (Pm) n - 1
REM
REM Run started: Fri, 23 Oct 2020 12:01:52 +0100 in /lustre/scratch/uccabz1/launch_tmp/launcher_2020-10-23-07-52-38-695597
REM CASTEP 20.1 from code version af48c487+ pr-geom-scf-spinfix Tue Jun 2 15:39:59 2020 +0100
REM Functional Perdew Burke Ernzerhof Relativity Koelling-Harmon Dispersion off
REM Cut-off 340.0000 eV Grid scale 1.7500 Gmax 16.5316 1/A FBSC none
REM MP grid 4 4 1 Offset 0.000 0.000 0.000 No. kpts 8 Spacing 0.07
REM Total runtime: 87470.7 s
REM Overall efficiency: 88.5 %
REM
REM
REM
REM compiler GCC version 4.9.2
REM options -cpp -iprefix /lustre/shared/ucl/apps/gcc/4.9.2/bin/../lib/gcc/x86_64-unknown-linux-gnu/4.9.2/ -mtune=corei7 -march=x86-64 -g -Og
REM COMMAND_LINE
REM seed -1551226869 -947283776 779963377 2010820300 -1281613845 -1222047783 1384164353 -1815977468 4321923 -2132113356 984633334 -55014081
REM
REM S 3|1.8|5|6|7|30:31:32(qc=5)
REM O 2|1.5|12|13|15|20:21(qc=5)
REM Li 1|1.3|8|9|10|10U:20(qc=5)
REM Fe 3|2.2|2.0|1.0|8|9|10|40:41:32(qc=5)
REM Fe d:4.0 
REM
CELL 1.54180    3.80604    3.69317   21.15720   90.00000   90.00000   91.78805
LATT -1
SFAC Li O  S  Fe 
Li     1 -0.4781910000000 -0.1198930000000  0.1317620000000 1.0   0.00
Li     1 -0.4781910000000 -0.1198930000000 -0.1317620000000 1.0   0.00
Li     1 -0.0789330000000 -0.0203200000000  0.3686110000000 1.0  -0.08
Li     1 -0.0789330000000 -0.0203200000000 -0.3686110000000 1.0  -0.08
O      2 -0.0841790000000 -0.5092870000000 -0.4064740000000 1.0   0.14
O      2 -0.0841790000000 -0.5092870000000  0.4064740000000 1.0   0.14
S      3  0.4020030000000  0.0007700000000  0.2985320000000 1.0   0.13
S      3  0.4020030000000  0.0007700000000 -0.2985320000000 1.0   0.13
S      3 -0.0060590000000 -0.5494980000000 -0.1389450000000 1.0   0.08
S      3 -0.0060590000000 -0.5494980000000  0.1389450000000 1.0   0.08
Fe     4  0.4186810000000  0.4775870000000  0.4003910000000 1.0   3.77
Fe     4  0.4186810000000  0.4775870000000 -0.4003910000000 1.0   3.77
Fe     4  0.0768650000000 -0.5227980000000  0.2430370000000 1.0   3.81
Fe     4  0.0768650000000 -0.5227980000000 -0.2430370000000 1.0   3.81
END
