TITL LFSO-Li4Fe3S4O-201028-221231-4d5916 0.4915 660.324118 -1.00768605E+004 23.9562 24.5567 24 (R3) n - 1
REM
REM Run started: Sat, 31 Oct 2020 01:56:33 +0000 in /lustre/scratch/uccabz1/launch_tmp/launcher_2020-10-30-22-09-52-342965
REM CASTEP 20.1 from code version af48c487+ pr-geom-scf-spinfix Tue Jun 2 15:39:59 2020 +0100
REM Functional Perdew Burke Ernzerhof Relativity Koelling-Harmon Dispersion off
REM Cut-off 340.0000 eV Grid scale 1.7500 Gmax 16.5316 1/A FBSC none
REM MP grid 3 3 3 Offset 0.000 0.000 0.000 No. kpts 6 Spacing 0.07
REM Total runtime: 164394 s
REM Overall efficiency: 98.2727 %
REM
REM
REM
REM compiler GCC version 4.9.2
REM options -cpp -iprefix /lustre/shared/ucl/apps/gcc/4.9.2/bin/../lib/gcc/x86_64-unknown-linux-gnu/4.9.2/ -mtune=corei7 -march=x86-64 -g -Og
REM COMMAND_LINE
REM seed -1984160025 -1951662491 228575620 1792333421 1046185032 -157110001 -750952930 -1685262674 1943650961 -1778805663 1431559068 -1949580071
REM
REM S 3|1.8|5|6|7|30:31:32(qc=5)
REM O 2|1.5|12|13|15|20:21(qc=5)
REM Li 1|1.3|8|9|10|10U:20(qc=5)
REM Fe 3|2.2|2.0|1.0|8|9|10|40:41:32(qc=5)
REM Fe d:4.0 
REM
CELL 1.54180   16.61749   16.61749   16.61749   23.87319   23.87319   23.87319
LATT -1
SFAC Li O  S  Fe 
Li     1  0.0660890000000 -0.2839830000000 -0.6636620000000 1.0  -0.01
Li     1 -0.6636620000000  0.0660890000000 -0.2839830000000 1.0  -0.01
Li     1 -0.2839830000000 -0.6636620000000  0.0660890000000 1.0  -0.01
Li     1 -0.5602230000000  0.1692030000000 -0.1813330000000 1.0  -0.02
Li     1 -0.1813330000000 -0.5602230000000  0.1692030000000 1.0  -0.02
Li     1  0.1692030000000 -0.1813330000000 -0.5602230000000 1.0  -0.02
Li     1 -0.1749740000000 -0.1749740000000 -0.1749740000000 1.0   0.00
Li     1 -0.3054560000000 -0.3054560000000 -0.3054560000000 1.0  -0.00
O      2  0.5881850000000  0.5881850000000  0.5881850000000 1.0   0.14
O      2  0.0916690000000  0.0916690000000  0.0916690000000 1.0   0.32
S      3  0.0287580000000  0.4023550000000 -0.2994210000000 1.0   0.04
S      3 -0.2994210000000  0.0287580000000  0.4023550000000 1.0   0.04
S      3  0.4023550000000 -0.2994210000000  0.0287580000000 1.0   0.04
S      3 -0.2025490000000  0.1204420000000  0.4994180000000 1.0   0.04
S      3  0.4994180000000 -0.2025490000000  0.1204420000000 1.0   0.04
S      3  0.1204420000000  0.4994180000000 -0.2025490000000 1.0   0.04
S      3  0.2560580000000  0.2560580000000  0.2560580000000 1.0   0.08
S      3 -0.0835040000000 -0.0835040000000 -0.0835040000000 1.0   0.07
Fe     4 -0.1224240000000  0.2936420000000 -0.4139010000000 1.0   3.90
Fe     4 -0.4139010000000 -0.1224240000000  0.2936420000000 1.0   3.90
Fe     4  0.2936420000000 -0.4139010000000 -0.1224240000000 1.0   3.90
Fe     4  0.3845690000000 -0.1790940000000  0.0704410000000 1.0   3.83
Fe     4  0.0704410000000  0.3845690000000 -0.1790940000000 1.0   3.83
Fe     4 -0.1790940000000  0.0704410000000  0.3845690000000 1.0   3.83
END
