TITL LFSO-Li5FeSO3-201026-235119-6be6fe -0.0074 298.467143 -6.95700774E+003 8.00000 8.46415 20 (R3) n - 1
REM
REM Run started: Tue, 27 Oct 2020 01:05:35 +0000 in /scratch/scratch/uccabz1/launch_tmp/launcher_2020-10-26-23-51-17-547219
REM CASTEP 19.11| from code version Version unavailable
REM Functional Perdew Burke Ernzerhof Relativity Koelling-Harmon Dispersion off
REM Cut-off 340.0000 eV Grid scale 1.7500 Gmax 16.5316 1/A FBSC none
REM MP grid 3 3 2 Offset 0.000 0.000 0.000 No. kpts 7 Spacing 0.07
REM Total runtime: 4831.08 s
REM Overall efficiency: 69.8571 %
REM
REM
REM
REM compiler GCC version 4.9.2
REM options -cpp -iprefix /scratch/UCL/applications/gcc/4.9.2/bin/../lib/gcc/x86_64-unknown-linux-gnu/4.9.2/ -mtune=corei7 -march=x86-64 -g -O2
REM COMMAND_LINE
REM seed 1479201630 -1511321695 974853709 571592884 -626512924 -900808994 -553790722 -756749759 5310694 1206057267 499548132 1855250105
REM
REM S 3|1.8|5|6|7|30:31:32(qc=5)
REM O 2|1.5|12|13|15|20:21(qc=5)
REM Li 1|1.3|8|9|10|10U:20(qc=5)
REM Fe 3|2.2|2.0|1.0|8|9|10|40:41:32(qc=5)
REM Fe d:4.0 
REM
CELL 1.54180    6.61307    6.61307    8.75679   67.81511   67.81511   60.00000
LATT -1
SFAC Li O  S  Fe 
Li     1  0.1605830000000 -0.1867040000000  0.2981380000000 1.0  -0.00
Li     1 -0.1867040000000 -0.2720170000000  0.2981380000000 1.0  -0.00
Li     1 -0.2720170000000  0.1605830000000  0.2981380000000 1.0  -0.00
Li     1  0.2188400000000 -0.3291720000000 -0.1192270000000 1.0  -0.01
Li     1 -0.3291720000000  0.2295590000000 -0.1192270000000 1.0  -0.01
Li     1  0.2295590000000  0.2188400000000 -0.1192270000000 1.0  -0.01
Li     1 -0.1302950000000  0.0316640000000  0.6071230000000 1.0  -0.06
Li     1  0.0316640000000  0.4915080000000  0.6071230000000 1.0  -0.06
Li     1  0.4915080000000 -0.1302950000000  0.6071230000000 1.0  -0.06
Li     1  0.4378880000000  0.4378880000000 -0.3136650000000 1.0   0.04
O      2  0.1011270000000  0.5407070000000  0.3727950000000 1.0   0.11
O      2  0.5407070000000 -0.0146290000000  0.3727950000000 1.0   0.11
O      2 -0.0146290000000  0.1011270000000  0.3727950000000 1.0   0.11
O      2  0.5604350000000 -0.4251350000000 -0.2129170000000 1.0   0.09
O      2 -0.4251350000000  0.0776170000000 -0.2129170000000 1.0   0.09
O      2  0.0776170000000  0.5604350000000 -0.2129170000000 1.0   0.09
S      3 -0.0059300000000 -0.0059300000000  0.0177890000000 1.0  -0.03
S      3  0.0868490000000  0.0868490000000 -0.2605470000000 1.0  -0.00
Fe     4  0.2140080000000  0.2140080000000  0.3579760000000 1.0   3.79
Fe     4 -0.2803270000000 -0.2803270000000 -0.1590180000000 1.0   3.82
END
