TITL LFSO-Li4Fe3S3O2-201029-204931-8d3db9 0.0072 400.735922 -1.03405624E+004 20.0644 21.3119 24 (I41) n - 1
REM
REM Run started: Fri, 30 Oct 2020 03:43:59 +0000 in /lustre/scratch/uccabz1/launch_tmp/launcher_2020-10-29-20-49-30-330095
REM CASTEP 20.1 from code version af48c487+ pr-geom-scf-spinfix Tue Jun 2 15:39:59 2020 +0100
REM Functional Perdew Burke Ernzerhof Relativity Koelling-Harmon Dispersion off
REM Cut-off 340.0000 eV Grid scale 1.7500 Gmax 16.5316 1/A FBSC none
REM MP grid 3 3 2 Offset 0.000 0.000 0.000 No. kpts 9 Spacing 0.07
REM Total runtime: 25257.1 s
REM Overall efficiency: 87.75 %
REM
REM
REM
REM compiler GCC version 4.9.2
REM options -cpp -iprefix /lustre/shared/ucl/apps/gcc/4.9.2/bin/../lib/gcc/x86_64-unknown-linux-gnu/4.9.2/ -mtune=corei7 -march=x86-64 -g -Og
REM COMMAND_LINE
REM seed 1204616269 664235720 -559135116 -631927612 -1757358771 840626216 459641417 -1666783372 -395922592 -866812620 1670807795 195011330
REM
REM S 3|1.8|5|6|7|30:31:32(qc=5)
REM O 2|1.5|12|13|15|20:21(qc=5)
REM Li 1|1.3|8|9|10|10U:20(qc=5)
REM Fe 3|2.2|2.0|1.0|8|9|10|40:41:32(qc=5)
REM Fe d:4.0 
REM
CELL 1.54180    8.23551    8.23551    8.23551  101.66261  101.66261  126.56281
LATT -1
SFAC Li O  S  Fe 
Li     1 -0.4033320000000 -0.4327170000000 -0.3031720000000 1.0  -0.04
Li     1 -0.1295450000000 -0.1001600000000  0.3031720000000 1.0  -0.04
Li     1  0.3172830000000  0.1204550000000  0.4706150000000 1.0  -0.04
Li     1 -0.3501600000000 -0.1533320000000 -0.4706150000000 1.0  -0.04
Li     1 -0.4331740000000 -0.0346390000000  0.2364020000000 1.0  -0.03
Li     1 -0.2710410000000  0.3304240000000 -0.2364020000000 1.0  -0.03
Li     1 -0.2846390000000 -0.0210410000000 -0.1014650000000 1.0  -0.03
Li     1  0.0804240000000 -0.1831740000000  0.1014650000000 1.0  -0.03
O      2  0.5526900000000 -0.2830290000000  0.2375730000000 1.0   0.07
O      2  0.4793980000000  0.3151160000000 -0.2375730000000 1.0   0.07
O      2  0.4669710000000 -0.2706020000000 -0.3357180000000 1.0   0.07
O      2  0.0651160000000 -0.1973100000000  0.3357180000000 1.0   0.07
S      3 -0.0544460000000  0.2128880000000  0.2578350000000 1.0   0.00
S      3 -0.0449470000000 -0.3122810000000 -0.2578350000000 1.0   0.00
S      3 -0.0371120000000  0.2050530000000 -0.2326660000000 1.0   0.00
S      3  0.4377190000000  0.1955540000000  0.2326660000000 1.0   0.00
S      3  0.1507590000000  0.1507590000000  0.0000000000000 1.0   0.06
S      3 -0.0992410000000  0.4007590000000  0.5000000000000 1.0   0.06
Fe     4  0.2726410000000  0.4838540000000  0.2413480000000 1.0   3.33
Fe     4  0.2425060000000  0.0312930000000 -0.2413480000000 1.0   3.33
Fe     4  0.2338540000000  0.4925060000000 -0.2887870000000 1.0   3.33
Fe     4 -0.2187070000000 -0.4773590000000  0.2887870000000 1.0   3.33
Fe     4  0.2518610000000 -0.2481390000000  0.5000000000000 1.0   3.33
Fe     4 -0.4981390000000 -0.4981390000000  0.0000000000000 1.0   3.33
END
