TITL LFSO-Li2Fe3S3O-201025-053503-5d4b5c -0.0062 167.910967 -4.33498638E+003 11.9975 12.0854 9 (Pm) n - 1
REM
REM Run started: Sun, 25 Oct 2020 07:38:38 +0000 in /lustre/scratch/uccabz1/launch_tmp/launcher_2020-10-25-05-35-02-000431
REM CASTEP 20.1 from code version af48c487+ pr-geom-scf-spinfix Tue Jun 2 15:39:59 2020 +0100
REM Functional Perdew Burke Ernzerhof Relativity Koelling-Harmon Dispersion off
REM Cut-off 340.0000 eV Grid scale 1.7500 Gmax 16.5316 1/A FBSC none
REM MP grid 4 4 2 Offset 0.000 0.000 0.000 No. kpts 8 Spacing 0.07
REM Total runtime: 7961.59 s
REM Overall efficiency: 78.5 %
REM
REM
REM
REM compiler GCC version 4.9.2
REM options -cpp -iprefix /lustre/shared/ucl/apps/gcc/4.9.2/bin/../lib/gcc/x86_64-unknown-linux-gnu/4.9.2/ -mtune=corei7 -march=x86-64 -g -Og
REM COMMAND_LINE
REM seed 1018317266 -158064169 1153100798 1363729081 366127137 2100569949 232942151 1503528437 -1444526155 -1089106927 1349737992 679343523
REM
REM S 3|1.8|5|6|7|30:31:32(qc=5)
REM O 2|1.5|12|13|15|20:21(qc=5)
REM Li 1|1.3|8|9|10|10U:20(qc=5)
REM Fe 3|2.2|2.0|1.0|8|9|10|40:41:32(qc=5)
REM Fe d:4.0 
REM
CELL 1.54180    3.69524    3.81299   12.42281   90.00000   90.00000  106.40443
LATT -1
SFAC Li O  S  Fe 
Li     1  0.0271430000000 -0.2788250000000  0.3954850000000 1.0  -0.02
Li     1  0.0271430000000 -0.2788250000000 -0.3954850000000 1.0  -0.02
O      2  0.3043810000000  0.3166990000000  0.0000000000000 1.0   0.21
S      3 -0.1978230000000 -0.2137030000000 -0.1993570000000 1.0   0.12
S      3 -0.1978230000000 -0.2137030000000  0.1993570000000 1.0   0.12
S      3  0.2968600000000 -0.7011410000000  0.5000000000000 1.0   0.36
Fe     4 -0.5922410000000  0.1875400000000  0.1585690000000 1.0   3.76
Fe     4 -0.5922410000000  0.1875400000000 -0.1585690000000 1.0   3.76
Fe     4 -0.0571200000000 -0.3782080000000  0.0000000000000 1.0   3.73
END
