TITL LFSO-Li4Fe3S3O2-201028-195658-17d589 0.1192 790.514432 -1.03400064E+004 22.0811 23.8477 24 (Cm) n - 1
REM
REM Run started: Sat, 31 Oct 2020 01:06:31 +0000 in /lustre/scratch/uccabz1/launch_tmp/launcher_2020-10-30-23-41-33-737158
REM CASTEP 20.1 from code version af48c487+ pr-geom-scf-spinfix Tue Jun 2 15:39:59 2020 +0100
REM Functional Perdew Burke Ernzerhof Relativity Koelling-Harmon Dispersion off
REM Cut-off 340.0000 eV Grid scale 1.7500 Gmax 16.5316 1/A FBSC none
REM MP grid 2 3 2 Offset 0.000 0.000 0.000 No. kpts 6 Spacing 0.07
REM Total runtime: 176895 s
REM Overall efficiency: 82.0769 %
REM
REM
REM
REM compiler GCC version 4.9.2
REM options -cpp -iprefix /lustre/shared/ucl/apps/gcc/4.9.2/bin/../lib/gcc/x86_64-unknown-linux-gnu/4.9.2/ -mtune=corei7 -march=x86-64 -g -Og
REM COMMAND_LINE
REM seed 1945057536 1750754934 -1261181523 236566066 -87581788 542848473 1389330673 -1671270596 -1901590732 838786071 959965197 -1549704594
REM
REM S 3|1.8|5|6|7|30:31:32(qc=5)
REM O 2|1.5|12|13|15|20:21(qc=5)
REM Li 1|1.3|8|9|10|10U:20(qc=5)
REM Fe 3|2.2|2.0|1.0|8|9|10|40:41:32(qc=5)
REM Fe d:4.0 
REM
CELL 1.54180   15.38228    9.47421   12.09829   55.77059   50.52648   35.72800
LATT -1
SFAC Li O  S  Fe 
Li     1  0.2300540000000 -0.2711550000000  0.2379000000000 1.0  -0.08
Li     1 -0.1968000000000 -0.2711550000000  0.2379000000000 1.0  -0.08
Li     1  0.2167860000000  0.4464250000000 -0.3084050000000 1.0  -0.01
Li     1 -0.3548060000000  0.4464250000000 -0.3084050000000 1.0  -0.01
Li     1  0.0646300000000  0.3912080000000 -0.0871060000000 1.0  -0.04
Li     1 -0.3687320000000  0.3912080000000 -0.0871060000000 1.0  -0.04
Li     1 -0.0566980000000  0.1608370000000  0.5672260000000 1.0  -0.05
Li     1  0.3286350000000  0.1608370000000  0.5672260000000 1.0  -0.05
O      2  0.0953180000000 -0.4209170000000 -0.1321830000000 1.0   0.14
O      2 -0.5422170000000 -0.4209170000000 -0.1321830000000 1.0   0.14
O      2  0.2166110000000  0.2120350000000 -0.2446990000000 1.0   0.15
O      2 -0.1839470000000  0.2120350000000 -0.2446990000000 1.0   0.15
S      3  0.2064840000000  0.0624420000000  0.0794020000000 1.0   0.09
S      3 -0.3483280000000  0.0624420000000  0.0794020000000 1.0   0.09
S      3  0.0199300000000 -0.1078860000000  0.4630480000000 1.0  -0.15
S      3 -0.3750930000000 -0.1078860000000  0.4630480000000 1.0  -0.15
S      3  0.3146900000000 -0.5058150000000  0.4331920000000 1.0  -0.11
S      3 -0.2420670000000 -0.5058150000000  0.4331920000000 1.0  -0.11
Fe     4 -0.0206140000000  0.1952060000000  0.2958430000000 1.0   3.35
Fe     4 -0.4704350000000  0.1952060000000  0.2958430000000 1.0   3.35
Fe     4  0.3097320000000 -0.0780630000000 -0.1327140000000 1.0   3.77
Fe     4 -0.0989550000000 -0.0780630000000 -0.1327140000000 1.0   3.77
Fe     4  0.2365980000000  0.3593660000000 -0.0295270000000 1.0   3.96
Fe     4  0.4335630000000  0.3593660000000 -0.0295270000000 1.0   3.96
END
