TITL LFSO-Li5FeSO3-201026-173329-2e1e8e -0.0188 142.033834 -3.47572839E+003 4.93472 5.07704 10 (I-4m2) n - 1
REM
REM Run started: Mon, 26 Oct 2020 18:04:45 +0000 in /lustre/scratch/uccabz1/launch_tmp/launcher_2020-10-26-17-33-27-476356
REM CASTEP 20.1 from code version af48c487+ pr-geom-scf-spinfix Tue Jun 2 15:39:59 2020 +0100
REM Functional Perdew Burke Ernzerhof Relativity Koelling-Harmon Dispersion off
REM Cut-off 340.0000 eV Grid scale 1.7500 Gmax 16.5316 1/A FBSC none
REM MP grid 4 3 3 Offset 0.000 0.000 0.000 No. kpts 18 Spacing 0.07
REM Total runtime: 2334.74 s
REM Overall efficiency: 92.8333 %
REM
REM
REM
REM compiler GCC version 4.9.2
REM options -cpp -iprefix /lustre/shared/ucl/apps/gcc/4.9.2/bin/../lib/gcc/x86_64-unknown-linux-gnu/4.9.2/ -mtune=corei7 -march=x86-64 -g -Og
REM COMMAND_LINE
REM seed -1726688421 1146664578 847041299 -791490039 2037333787 -1296572497 -260087571 1514283317 321170937 -1150460914 1414996639 -228288586
REM
REM S 3|1.8|5|6|7|30:31:32(qc=5)
REM O 2|1.5|12|13|15|20:21(qc=5)
REM Li 1|1.3|8|9|10|10U:20(qc=5)
REM Fe 3|2.2|2.0|1.0|8|9|10|40:41:32(qc=5)
REM Fe d:4.0 
REM
CELL 1.54180    5.73537    5.73537    5.73537   99.52462  114.66199  114.66199
LATT -1
SFAC Li O  S  Fe 
Li     1 -0.0009610000000 -0.2139150000000  0.2128920000000 1.0  -0.06
Li     1  0.0009610000000  0.2138530000000 -0.2129540000000 1.0  -0.06
Li     1  0.4268070000000  0.2129540000000  0.2139150000000 1.0  -0.06
Li     1 -0.4268070000000 -0.2128920000000 -0.2138530000000 1.0  -0.06
Li     1  0.5000000000000 -0.2500000000000  0.2500000000000 1.0   0.02
O      2  0.5000000000000  0.0051730000000  0.5051730000000 1.0   0.24
O      2 -0.5000000000000 -0.5051730000000 -0.0051730000000 1.0   0.24
O      2 -0.0000000000000 -0.0000000000000  0.0000000000000 1.0   0.31
S      3 -0.0000000000000 -0.5000000000000  0.5000000000000 1.0   0.57
Fe     4 -0.5000000000000  0.2500000000000 -0.2500000000000 1.0   3.80
END
