TITL LFSO-Li6FeSO3-201028-071814-1c1075 -0.1029 247.047121 -3.67798375E+003 -4.00000 4.09634 11 (Pm) n - 1
REM
REM Run started: Wed, 28 Oct 2020 08:28:15 +0000 in /lustre/scratch/uccabz1/launch_tmp/launcher_2020-10-28-07-18-12-617539
REM CASTEP 20.1 from code version af48c487+ pr-geom-scf-spinfix Tue Jun 2 15:39:59 2020 +0100
REM Functional Perdew Burke Ernzerhof Relativity Koelling-Harmon Dispersion off
REM Cut-off 340.0000 eV Grid scale 1.7500 Gmax 16.5316 1/A FBSC none
REM MP grid 3 4 2 Offset 0.000 0.000 0.000 No. kpts 6 Spacing 0.07
REM Total runtime: 4583.85 s
REM Overall efficiency: 77.0833 %
REM
REM
REM
REM compiler GCC version 4.9.2
REM options -cpp -iprefix /lustre/shared/ucl/apps/gcc/4.9.2/bin/../lib/gcc/x86_64-unknown-linux-gnu/4.9.2/ -mtune=corei7 -march=x86-64 -g -Og
REM COMMAND_LINE
REM seed -748773883 -986469765 708984658 96788746 485327033 -2135968188 1636192870 560026955 -488481323 2105094810 951151221 1740351525
REM
REM S 3|1.8|5|6|7|30:31:32(qc=5)
REM O 2|1.5|12|13|15|20:21(qc=5)
REM Li 1|1.3|8|9|10|10U:20(qc=5)
REM Fe 3|2.2|2.0|1.0|8|9|10|40:41:32(qc=5)
REM Fe d:4.0 
REM
CELL 1.54180    6.91730    5.99445    7.99670   90.00000   90.00000  131.83698
LATT -1
SFAC Li O  S  Fe 
Li     1  0.0072550000000 -0.2716570000000  0.3280910000000 1.0   0.02
Li     1  0.0072550000000 -0.2716570000000 -0.3280910000000 1.0   0.02
Li     1 -0.4520210000000  0.2790670000000 -0.3247640000000 1.0   0.00
Li     1 -0.4520210000000  0.2790670000000  0.3247640000000 1.0   0.00
Li     1  0.1514520000000  0.2886790000000 -0.1995920000000 1.0  -0.00
Li     1  0.1514520000000  0.2886790000000  0.1995920000000 1.0  -0.00
O      2  0.2454550000000  0.0758580000000  0.2167590000000 1.0  -0.09
O      2  0.2454550000000  0.0758580000000 -0.2167590000000 1.0  -0.09
O      2 -0.2241950000000  0.4956930000000  0.5000000000000 1.0  -0.00
S      3 -0.0325840000000  0.3923810000000  0.0000000000000 1.0  -0.08
Fe     4  0.1971150000000 -0.0944710000000  0.0000000000000 1.0  -3.76
END
