TITL LFSO-Li4Fe3S3O2-201030-011635-10de41 -0.0224 201.629089 -5.17207605E+003 11.7672 11.8931 12 (Cmm2) n - 1
REM
REM Run started: Fri, 30 Oct 2020 02:57:19 +0000 in /lustre/scratch/uccabz1/launch_tmp/launcher_2020-10-30-01-16-34-039808
REM CASTEP 20.1 from code version af48c487+ pr-geom-scf-spinfix Tue Jun 2 15:39:59 2020 +0100
REM Functional Perdew Burke Ernzerhof Relativity Koelling-Harmon Dispersion off
REM Cut-off 340.0000 eV Grid scale 1.7500 Gmax 16.5316 1/A FBSC none
REM MP grid 3 3 4 Offset 0.000 0.000 0.000 No. kpts 8 Spacing 0.07
REM Total runtime: 6491.55 s
REM Overall efficiency: 95.5 %
REM
REM
REM
REM compiler GCC version 4.9.2
REM options -cpp -iprefix /lustre/shared/ucl/apps/gcc/4.9.2/bin/../lib/gcc/x86_64-unknown-linux-gnu/4.9.2/ -mtune=corei7 -march=x86-64 -g -Og
REM COMMAND_LINE
REM seed 120466272 2060304729 -2100451307 -390995502 1138595974 -308028765 -1699087545 1630635376 1625382546 458040581 -1799641272 -438505012
REM
REM S 3|1.8|5|6|7|30:31:32(qc=5)
REM O 2|1.5|12|13|15|20:21(qc=5)
REM Li 1|1.3|8|9|10|10U:20(qc=5)
REM Fe 3|2.2|2.0|1.0|8|9|10|40:41:32(qc=5)
REM Fe d:4.0 
REM
CELL 1.54180    7.03913    7.03913    4.08377   90.00000   90.00000   85.16918
LATT -1
SFAC Li O  S  Fe 
Li     1 -0.3086250000000  0.0094400000000 -0.1608880000000 1.0  -0.05
Li     1  0.3086250000000 -0.0094400000000 -0.1608880000000 1.0  -0.05
Li     1  0.0094400000000 -0.3086250000000 -0.1608880000000 1.0  -0.05
Li     1 -0.0094400000000  0.3086250000000 -0.1608880000000 1.0  -0.05
O      2  0.3034820000000 -0.3034820000000 -0.1305930000000 1.0   0.12
O      2 -0.3034820000000  0.3034820000000 -0.1305930000000 1.0   0.12
S      3  0.5000000000000  0.0000000000000  0.3338700000000 1.0   0.14
S      3  0.0000000000000 -0.5000000000000  0.3338700000000 1.0   0.14
S      3  0.0000000000000  0.0000000000000  0.5883910000000 1.0   0.07
Fe     4  0.2576580000000 -0.2576580000000 -0.6480710000000 1.0   3.85
Fe     4 -0.2576580000000  0.2576580000000 -0.6480710000000 1.0   3.85
Fe     4 -0.5000000000000 -0.5000000000000 -0.1477890000000 1.0   3.67
END
