TITL LFSO-Li5FeS2O2-201025-160400-ed3e01 0.0132 166.188959 -3.34472772E+003 3.00435 3.43178 10 (P2) n - 1
REM
REM Run started: Sun, 25 Oct 2020 19:21:35 +0000 in /scratch/scratch/uccabz1/launch_tmp/launcher_2020-10-25-16-03-58-660980
REM CASTEP 19.11| from code version Version unavailable
REM Functional Perdew Burke Ernzerhof Relativity Koelling-Harmon Dispersion off
REM Cut-off 340.0000 eV Grid scale 1.7500 Gmax 16.5316 1/A FBSC none
REM MP grid 9 3 2 Offset 0.000 0.000 0.000 No. kpts 12 Spacing 0.07
REM Total runtime: 13825.1 s
REM Overall efficiency: 79.4167 %
REM
REM
REM
REM compiler GCC version 4.9.2
REM options -cpp -iprefix /scratch/UCL/applications/gcc/4.9.2/bin/../lib/gcc/x86_64-unknown-linux-gnu/4.9.2/ -mtune=corei7 -march=x86-64 -g -O2
REM COMMAND_LINE
REM seed -1513428009 -254450794 1615956787 217722525 74112773 173412246 41815387 1014486064 1681812136 -1806146412 -140007985 -1497901136
REM
REM S 3|1.8|5|6|7|30:31:32(qc=5)
REM O 2|1.5|12|13|15|20:21(qc=5)
REM Li 1|1.3|8|9|10|10U:20(qc=5)
REM Fe 3|2.2|2.0|1.0|8|9|10|40:41:32(qc=5)
REM Fe d:4.0 
REM
CELL 1.54180    3.15393    7.35185   18.94469   90.00000  157.76998   90.00000
LATT -1
SFAC Li O  S  Fe 
Li     1 -0.5457870000000  0.3658290000000  0.2202220000000 1.0  -0.00
Li     1  0.5457870000000  0.3658290000000 -0.2202220000000 1.0  -0.00
Li     1 -0.6006020000000 -0.3348220000000  0.2090530000000 1.0   0.01
Li     1  0.6006020000000 -0.3348220000000 -0.2090530000000 1.0   0.01
Li     1  0.5000000000000  0.5384080000000 -0.5000000000000 1.0  -0.05
O      2 -0.1202480000000 -0.4758390000000 -0.2492050000000 1.0   0.01
O      2  0.1202480000000 -0.4758390000000  0.2492050000000 1.0   0.01
S      3 -0.2711790000000  0.0301560000000  0.2706840000000 1.0  -0.09
S      3  0.2711790000000  0.0301560000000 -0.2706840000000 1.0  -0.09
Fe     4  0.5000000000000  0.0369880000000 -0.5000000000000 1.0   3.21
END
