TITL LFSO-Li2FeSO-201025-122407-d6770f 0.0501 167.733699 -4.00702066E+003 8.00000 8.10311 10 (Cmm2) n - 1
REM
REM Run started: Sun, 25 Oct 2020 13:02:32 +0000 in /scratch/scratch/uccabz1/launch_tmp/launcher_2020-10-25-12-24-06-256346
REM CASTEP 19.11| from code version Version unavailable
REM Functional Perdew Burke Ernzerhof Relativity Koelling-Harmon Dispersion off
REM Cut-off 340.0000 eV Grid scale 1.7500 Gmax 16.5316 1/A FBSC none
REM MP grid 4 3 3 Offset 0.000 0.000 0.000 No. kpts 8 Spacing 0.07
REM Total runtime: 3174.81 s
REM Overall efficiency: 94.3333 %
REM
REM
REM
REM compiler GCC version 4.9.2
REM options -cpp -iprefix /scratch/UCL/applications/gcc/4.9.2/bin/../lib/gcc/x86_64-unknown-linux-gnu/4.9.2/ -mtune=corei7 -march=x86-64 -g -O2
REM COMMAND_LINE
REM seed 556041608 -1872597445 -1286200530 493885904 -1271185843 -1337406322 -1316233745 1908617209 -1530221166 131057864 -2090083317 -1748758977
REM
REM S 3|1.8|5|6|7|30:31:32(qc=5)
REM O 2|1.5|12|13|15|20:21(qc=5)
REM Li 1|1.3|8|9|10|10U:20(qc=5)
REM Fe 3|2.2|2.0|1.0|8|9|10|40:41:32(qc=5)
REM Fe d:4.0 
REM
CELL 1.54180    3.60578    8.44909    6.93969  127.49921   90.00000   90.00000
LATT -1
SFAC Li O  S  Fe 
Li     1 -0.4946680000000 -0.3752700000000 -0.2247330000000 1.0  -0.03
Li     1 -0.4946680000000  0.3752700000000  0.2247330000000 1.0  -0.03
Li     1 -0.4946680000000 -0.1505370000000  0.2247330000000 1.0  -0.03
Li     1 -0.4946680000000  0.1505370000000 -0.2247330000000 1.0  -0.03
O      2  0.1224280000000 -0.1893920000000  0.0000000000000 1.0   0.14
O      2  0.1224280000000  0.1893920000000  0.0000000000000 1.0   0.14
S      3 -0.4344320000000 -0.2577140000000  0.4845720000000 1.0   0.08
S      3 -0.4344320000000  0.2577140000000 -0.4845720000000 1.0   0.08
Fe     4  0.0603500000000 -0.1181490000000 -0.2362980000000 1.0   3.83
Fe     4  0.0603500000000  0.1181490000000  0.2362980000000 1.0   3.83
END
