TITL LFSO-Li2Fe3S3O-201025-145102-816444 0.0105 163.088726 -4.33659715E+003 12.0000 12.0902 9 (R3) n - 1
REM
REM Run started: Sun, 25 Oct 2020 15:51:18 +0000 in /lustre/scratch/uccabz1/launch_tmp/launcher_2020-10-25-14-51-00-525319
REM CASTEP 20.1 from code version af48c487+ pr-geom-scf-spinfix Tue Jun 2 15:39:59 2020 +0100
REM Functional Perdew Burke Ernzerhof Relativity Koelling-Harmon Dispersion off
REM Cut-off 340.0000 eV Grid scale 1.7500 Gmax 16.5316 1/A FBSC none
REM MP grid 3 3 3 Offset 0.000 0.000 0.000 No. kpts 6 Spacing 0.07
REM Total runtime: 5136.21 s
REM Overall efficiency: 95 %
REM
REM
REM
REM compiler GCC version 4.9.2
REM options -cpp -iprefix /lustre/shared/ucl/apps/gcc/4.9.2/bin/../lib/gcc/x86_64-unknown-linux-gnu/4.9.2/ -mtune=corei7 -march=x86-64 -g -Og
REM COMMAND_LINE
REM seed -1224908135 1489386197 -692444821 217775694 -1307366785 678357188 -1923972130 1114650916 -1098726592 277546748 151412322 300742639
REM
REM S 3|1.8|5|6|7|30:31:32(qc=5)
REM O 2|1.5|12|13|15|20:21(qc=5)
REM Li 1|1.3|8|9|10|10U:20(qc=5)
REM Fe 3|2.2|2.0|1.0|8|9|10|40:41:32(qc=5)
REM Fe d:4.0 
REM
CELL 1.54180    5.46464    5.46464    5.46464   88.84400   88.84400   88.84400
LATT -1
SFAC Li O  S  Fe 
Li     1 -0.4864650000000 -0.4864650000000 -0.4864650000000 1.0  -0.04
Li     1 -0.2202430000000 -0.2202430000000 -0.2202430000000 1.0  -0.04
O      2 -0.0284570000000 -0.0284570000000 -0.0284570000000 1.0   0.14
S      3 -0.0579910000000  0.4507860000000  0.4370320000000 1.0   0.08
S      3  0.4370320000000 -0.0579910000000  0.4507860000000 1.0   0.08
S      3  0.4507860000000  0.4370320000000 -0.0579910000000 1.0   0.08
Fe     4  0.1543820000000  0.1812490000000 -0.2803730000000 1.0   3.89
Fe     4 -0.2803730000000  0.1543820000000  0.1812490000000 1.0   3.89
Fe     4  0.1812490000000 -0.2803730000000  0.1543820000000 1.0   3.89
END
