TITL LFSO-Li2Fe4S3O2-201025-055510-0cb5e1 -0.0694 439.897192 -1.12720807E+004 31.9994 32.2850 22 (Pc) n - 1
REM
REM Run started: Mon, 26 Oct 2020 05:24:06 +0000 in /scratch/scratch/uccabz1/launch_tmp/launcher_2020-10-25-05-55-07-533229
REM CASTEP 19.11| from code version Version unavailable
REM Functional Perdew Burke Ernzerhof Relativity Koelling-Harmon Dispersion off
REM Cut-off 340.0000 eV Grid scale 1.7500 Gmax 16.5316 1/A FBSC none
REM MP grid 3 3 3 Offset 0.000 0.000 0.000 No. kpts 10 Spacing 0.07
REM Total runtime: 90362.9 s
REM Overall efficiency: 81.4167 %
REM
REM
REM
REM compiler GCC version 4.9.2
REM options -cpp -iprefix /scratch/UCL/applications/gcc/4.9.2/bin/../lib/gcc/x86_64-unknown-linux-gnu/4.9.2/ -mtune=corei7 -march=x86-64 -g -O2
REM COMMAND_LINE
REM seed 1142208093 1583206599 1781581727 1062354916 -1811745626 1238788686 -1816752783 -943881424 1827521566 623466612 1675804192 2016349673
REM
REM S 3|1.8|5|6|7|30:31:32(qc=5)
REM O 2|1.5|12|13|15|20:21(qc=5)
REM Li 1|1.3|8|9|10|10U:20(qc=5)
REM Fe 3|2.2|2.0|1.0|8|9|10|40:41:32(qc=5)
REM Fe d:4.0 
REM
CELL 1.54180    6.63836   10.47435   10.70216  143.76192   90.00000   90.00000
LATT -1
SFAC Li O  S  Fe 
Li     1 -0.0134270000000 -0.0349770000000 -0.2370150000000 1.0  -0.05
Li     1  0.0134270000000  0.4650230000000  0.2629850000000 1.0  -0.05
Li     1 -0.1264990000000  0.4183400000000 -0.2972020000000 1.0   0.00
Li     1  0.1264990000000 -0.0816600000000  0.2027980000000 1.0   0.00
O      2 -0.0008660000000 -0.2342810000000  0.4717830000000 1.0   0.16
O      2  0.0008660000000  0.2657190000000 -0.0282170000000 1.0   0.16
O      2  0.3275380000000 -0.0651970000000  0.3430010000000 1.0   0.17
O      2 -0.3275380000000 -0.5651970000000 -0.1569990000000 1.0   0.17
S      3  0.2889750000000  0.0695020000000  0.1071080000000 1.0   0.14
S      3 -0.2889750000000 -0.4304980000000 -0.3928920000000 1.0   0.14
S      3 -0.2116920000000 -0.0294180000000  0.3427210000000 1.0   0.16
S      3  0.2116920000000  0.4705820000000 -0.1572790000000 1.0   0.16
S      3 -0.5084410000000  0.5169760000000  0.2279770000000 1.0   0.14
S      3  0.5084410000000  0.0169760000000 -0.2720230000000 1.0   0.14
Fe     4 -0.2387550000000  0.3326720000000 -0.0720120000000 1.0   3.85
Fe     4  0.2387550000000 -0.1673280000000  0.4279880000000 1.0   3.85
Fe     4  0.2601480000000  0.3170890000000 -0.0720350000000 1.0   3.83
Fe     4 -0.2601480000000 -0.1829110000000 -0.5720350000000 1.0   3.83
Fe     4 -0.5155390000000  0.2123250000000 -0.4162590000000 1.0   3.80
Fe     4  0.5155390000000 -0.2876750000000  0.0837410000000 1.0   3.80
Fe     4 -0.5001760000000 -0.1345970000000 -0.1812210000000 1.0   3.81
Fe     4  0.5001760000000  0.3654030000000  0.3187790000000 1.0   3.81
END
