TITL LFSO-Li2FeSO-201025-011652-44a6d1 -0.0014 72.389805 -2.00398089E+003 4.00000 4.05386 5 (Cm) n - 1
REM
REM Run started: Sun, 25 Oct 2020 03:22:12 +0000 in /lustre/scratch/uccabz1/launch_tmp/launcher_2020-10-25-01-16-49-758494
REM CASTEP 20.1 from code version af48c487+ pr-geom-scf-spinfix Tue Jun 2 15:39:59 2020 +0100
REM Functional Perdew Burke Ernzerhof Relativity Koelling-Harmon Dispersion off
REM Cut-off 340.0000 eV Grid scale 1.7500 Gmax 16.5316 1/A FBSC none
REM MP grid 4 7 6 Offset 0.000 0.000 0.000 No. kpts 84 Spacing 0.07
REM Total runtime: 5445.91 s
REM Overall efficiency: 92.4286 %
REM
REM
REM
REM compiler GCC version 4.9.2
REM options -cpp -iprefix /lustre/shared/ucl/apps/gcc/4.9.2/bin/../lib/gcc/x86_64-unknown-linux-gnu/4.9.2/ -mtune=corei7 -march=x86-64 -g -Og
REM COMMAND_LINE
REM seed 742510527 1769558695 -862594997 -1401671980 1483392813 169590019 -2060471782 819663411 -1830494303 153754823 1757910585 887735801
REM
REM S 3|1.8|5|6|7|30:31:32(qc=5)
REM O 2|1.5|12|13|15|20:21(qc=5)
REM Li 1|1.3|8|9|10|10U:20(qc=5)
REM Fe 3|2.2|2.0|1.0|8|9|10|40:41:32(qc=5)
REM Fe d:4.0 
REM
CELL 1.54180    4.95669    5.47487    6.68843  147.01659  111.74909   89.99999
LATT -1
SFAC Li O  S  Fe 
Li     1 -0.2309230000000  0.3096780000000  0.0407350000000 1.0  -0.02
Li     1  0.2716580000000  0.3096780000000  0.0407350000000 1.0  -0.02
O      2  0.2670770000000 -0.3278180000000 -0.4658460000000 1.0   0.11
S      3 -0.2255980000000  0.1453760000000 -0.4511970000000 1.0   0.10
Fe     4  0.1759480000000  0.1469020000000  0.3518960000000 1.0   3.83
END
