TITL LFSO-Li2Fe3S3O-201025-174029-74d36a 0.0656 407.537374 -8.67232970E+003 24.0000 24.3183 18 (Cc) n - 1
REM
REM Run started: Mon, 26 Oct 2020 06:01:56 +0000 in /scratch/scratch/uccabz1/launch_tmp/launcher_2020-10-25-17-40-28-234183
REM CASTEP 19.11| from code version Version unavailable
REM Functional Perdew Burke Ernzerhof Relativity Koelling-Harmon Dispersion off
REM Cut-off 340.0000 eV Grid scale 1.7500 Gmax 16.5316 1/A FBSC none
REM MP grid 3 3 2 Offset 0.000 0.000 0.000 No. kpts 6 Spacing 0.07
REM Total runtime: 49527.2 s
REM Overall efficiency: 95.8333 %
REM
REM
REM
REM compiler GCC version 4.9.2
REM options -cpp -iprefix /scratch/UCL/applications/gcc/4.9.2/bin/../lib/gcc/x86_64-unknown-linux-gnu/4.9.2/ -mtune=corei7 -march=x86-64 -g -O2
REM COMMAND_LINE
REM seed 1033482414 1080442666 810880954 -1275625078 -1218033029 1222168641 -186775803 -263823159 977684966 1804792097 2080893694 1660577856
REM
REM S 3|1.8|5|6|7|30:31:32(qc=5)
REM O 2|1.5|12|13|15|20:21(qc=5)
REM Li 1|1.3|8|9|10|10U:20(qc=5)
REM Fe 3|2.2|2.0|1.0|8|9|10|40:41:32(qc=5)
REM Fe d:4.0 
REM
CELL 1.54180    6.09185    6.09185   11.84140  102.74932  102.74932   74.89427
LATT -1
SFAC Li O  S  Fe 
Li     1  0.2640270000000  0.0993370000000 -0.1251960000000 1.0  -0.07
Li     1  0.5993370000000 -0.2359730000000  0.3748040000000 1.0  -0.07
Li     1  0.4415140000000 -0.1046760000000 -0.3825380000000 1.0  -0.01
Li     1  0.3953240000000 -0.0584860000000  0.1174620000000 1.0  -0.01
O      2  0.1508670000000  0.1122270000000  0.0186720000000 1.0   0.13
O      2 -0.3877730000000 -0.3491330000000  0.5186720000000 1.0   0.13
S      3 -0.2648110000000 -0.3042790000000  0.0079260000000 1.0   0.09
S      3  0.1957210000000  0.2351890000000 -0.4920740000000 1.0   0.09
S      3  0.2406700000000 -0.3476620000000  0.2626310000000 1.0   0.09
S      3  0.1523380000000 -0.2593300000000 -0.2373690000000 1.0   0.09
S      3 -0.4138070000000  0.1249860000000 -0.2007600000000 1.0   0.11
S      3 -0.3750140000000  0.0861930000000  0.2992400000000 1.0   0.11
Fe     4  0.4483170000000  0.4025980000000  0.4306540000000 1.0   3.91
Fe     4 -0.0974020000000 -0.0516830000000 -0.0693460000000 1.0   3.91
Fe     4 -0.4962990000000 -0.4813100000000 -0.1545900000000 1.0   3.84
Fe     4  0.0186900000000  0.0037010000000  0.3454100000000 1.0   3.84
Fe     4  0.0679890000000  0.4313030000000  0.0884790000000 1.0   3.89
Fe     4 -0.0686970000000 -0.4320110000000 -0.4115210000000 1.0   3.89
END
