TITL LFSO-Li2FeSO-201024-173746-6b741d 0.0187 366.548293 -8.01467429E+003 8.00000 15.9325 20 (R3) n - 1
REM
REM Run started: Sun, 25 Oct 2020 10:47:59 +0000 in /scratch/scratch/uccabz1/launch_tmp/launcher_2020-10-24-16-37-45-172821
REM CASTEP 19.11| from code version Version unavailable
REM Functional Perdew Burke Ernzerhof Relativity Koelling-Harmon Dispersion off
REM Cut-off 340.0000 eV Grid scale 1.7500 Gmax 16.5316 1/A FBSC none
REM MP grid 3 3 3 Offset 0.000 0.000 0.000 No. kpts 6 Spacing 0.07
REM Total runtime: 74708.3 s
REM Overall efficiency: 98.1538 %
REM
REM
REM
REM compiler GCC version 4.9.2
REM options -cpp -iprefix /scratch/UCL/applications/gcc/4.9.2/bin/../lib/gcc/x86_64-unknown-linux-gnu/4.9.2/ -mtune=corei7 -march=x86-64 -g -O2
REM COMMAND_LINE
REM seed 231708587 -1351646511 -823121802 210338177 1598191964 755098614 -1176648543 1145294635 -1199222350 1246440327 -576083217 -1015554530
REM
REM S 3|1.8|5|6|7|30:31:32(qc=5)
REM O 2|1.5|12|13|15|20:21(qc=5)
REM Li 1|1.3|8|9|10|10U:20(qc=5)
REM Fe 3|2.2|2.0|1.0|8|9|10|40:41:32(qc=5)
REM Fe d:4.0 
REM
CELL 1.54180    8.58349    8.58349    7.58691   55.55062   55.55062   60.00000
LATT -1
SFAC Li O  S  Fe 
Li     1  0.2283160000000 -0.2444210000000  0.2715950000000 1.0  -0.00
Li     1  0.7445100000000  0.2283160000000  0.2715950000000 1.0  -0.00
Li     1 -0.2444210000000  0.7445100000000  0.2715950000000 1.0  -0.00
Li     1 -0.0895840000000  0.5175550000000  0.0404300000000 1.0   0.00
Li     1 -0.4684010000000 -0.0895840000000  0.0404300000000 1.0   0.00
Li     1  0.5175550000000 -0.4684010000000  0.0404300000000 1.0   0.00
Li     1 -0.0088200000000 -0.0088200000000  0.0264590000000 1.0  -0.05
Li     1 -0.2675140000000 -0.2675140000000 -0.1974570000000 1.0  -0.06
O      2 -0.1888660000000 -0.1983780000000 -0.0461440000000 1.0   0.09
O      2  0.4333880000000 -0.1888660000000 -0.0461440000000 1.0   0.09
O      2 -0.1983780000000  0.4333880000000 -0.0461440000000 1.0   0.09
O      2  0.0916790000000  0.0916790000000 -0.2750380000000 1.0   0.14
S      3 -0.6407540000000 -0.1811780000000  0.4691600000000 1.0  -0.05
S      3  0.3527720000000 -0.6407540000000  0.4691600000000 1.0  -0.05
S      3 -0.1811780000000  0.3527720000000  0.4691600000000 1.0  -0.05
S      3 -0.1346970000000 -0.1346970000000  0.4040900000000 1.0   0.03
Fe     4 -0.0256550000000 -0.0280450000000 -0.3229520000000 1.0   3.84
Fe     4  0.3766520000000 -0.0256550000000 -0.3229520000000 1.0   3.84
Fe     4 -0.0280450000000  0.3766520000000 -0.3229520000000 1.0   3.84
Fe     4  0.4938550000000  0.4938550000000 -0.4815640000000 1.0  -3.72
END
