TITL LFSO-Li4Fe2S3O-201028-020639-af838a -0.0233 373.867025 -3.87191884E+003 8.00000 8.05307 10 (P2) n - 1
REM
REM Run started: Wed, 28 Oct 2020 05:55:05 +0000 in /lustre/scratch/uccabz1/launch_tmp/launcher_2020-10-28-02-06-38-072057
REM CASTEP 20.1 from code version af48c487+ pr-geom-scf-spinfix Tue Jun 2 15:39:59 2020 +0100
REM Functional Perdew Burke Ernzerhof Relativity Koelling-Harmon Dispersion off
REM Cut-off 340.0000 eV Grid scale 1.7500 Gmax 16.5316 1/A FBSC none
REM MP grid 2 4 2 Offset 0.000 0.000 0.000 No. kpts 4 Spacing 0.07
REM Total runtime: 13797 s
REM Overall efficiency: 82.5833 %
REM
REM
REM
REM compiler GCC version 4.9.2
REM options -cpp -iprefix /lustre/shared/ucl/apps/gcc/4.9.2/bin/../lib/gcc/x86_64-unknown-linux-gnu/4.9.2/ -mtune=corei7 -march=x86-64 -g -Og
REM COMMAND_LINE
REM seed 1853725084 -345747375 2006101891 1791431788 765429006 1835307686 724965557 -1634441447 -767419008 -351563765 -208671119 -316745060
REM
REM S 3|1.8|5|6|7|30:31:32(qc=5)
REM O 2|1.5|12|13|15|20:21(qc=5)
REM Li 1|1.3|8|9|10|10U:20(qc=5)
REM Fe 3|2.2|2.0|1.0|8|9|10|40:41:32(qc=5)
REM Fe d:4.0 
REM
CELL 1.54180   12.32564    4.08529    7.62854   90.00000   90.00000   76.72859
LATT -1
SFAC Li O  S  Fe 
Li     1 -0.3847170000000 -0.0475690000000  0.2681770000000 1.0  -0.05
Li     1  0.3847170000000  0.0475690000000  0.2681770000000 1.0  -0.05
Li     1 -0.4001130000000  0.1045170000000 -0.2254130000000 1.0  -0.02
Li     1  0.4001130000000 -0.1045170000000 -0.2254130000000 1.0  -0.02
O      2 -0.5000000000000 -0.5000000000000 -0.1579500000000 1.0   0.18
S      3 -0.2771920000000 -0.0971710000000  0.0085290000000 1.0   0.08
S      3  0.2771920000000  0.0971710000000  0.0085290000000 1.0   0.08
S      3  0.5000000000000  0.5000000000000  0.3075650000000 1.0   0.06
Fe     4  0.3772550000000 -0.4802130000000  0.0231530000000 1.0   3.87
Fe     4 -0.3772550000000  0.4802130000000  0.0231530000000 1.0   3.87
END
