TITL LFSO-Li4Fe3S4O-201029-012952-4caec9 0.1662 371.603359 -5.03944549E+003 -12.0000 12.1840 12 (Pm) n - 1
REM
REM Run started: Thu, 29 Oct 2020 07:18:30 +0000 in /lustre/scratch/uccabz1/launch_tmp/launcher_2020-10-29-01-29-50-970529
REM CASTEP 20.1 from code version af48c487+ pr-geom-scf-spinfix Tue Jun 2 15:39:59 2020 +0100
REM Functional Perdew Burke Ernzerhof Relativity Koelling-Harmon Dispersion off
REM Cut-off 340.0000 eV Grid scale 1.7500 Gmax 16.5316 1/A FBSC none
REM MP grid 4 2 2 Offset 0.000 0.000 0.000 No. kpts 4 Spacing 0.07
REM Total runtime: 22839.1 s
REM Overall efficiency: 84.4615 %
REM
REM
REM
REM compiler GCC version 4.9.2
REM options -cpp -iprefix /lustre/shared/ucl/apps/gcc/4.9.2/bin/../lib/gcc/x86_64-unknown-linux-gnu/4.9.2/ -mtune=corei7 -march=x86-64 -g -Og
REM COMMAND_LINE
REM seed -1318682345 1575041809 1699834528 141204482 745136314 -629526240 -2146442756 -2041235884 -874445897 2095253993 -740834695 184735752
REM
REM S 3|1.8|5|6|7|30:31:32(qc=5)
REM O 2|1.5|12|13|15|20:21(qc=5)
REM Li 1|1.3|8|9|10|10U:20(qc=5)
REM Fe 3|2.2|2.0|1.0|8|9|10|40:41:32(qc=5)
REM Fe d:4.0 
REM
CELL 1.54180    3.82025   13.05242    7.45242   90.00000   90.09104   90.00000
LATT -1
SFAC Li O  S  Fe 
Li     1 -0.0418400000000  0.2183670000000  0.4499940000000 1.0   0.01
Li     1 -0.0418400000000 -0.2183670000000  0.4499940000000 1.0   0.01
Li     1 -0.0438600000000 -0.2352500000000  0.0803540000000 1.0   0.03
Li     1 -0.0438600000000  0.2352500000000  0.0803540000000 1.0   0.03
O      2 -0.5590440000000  0.0000000000000 -0.1114550000000 1.0  -0.24
S      3 -0.5445320000000 -0.1743600000000  0.2568300000000 1.0  -0.04
S      3 -0.5445320000000  0.1743600000000  0.2568300000000 1.0  -0.04
S      3 -0.0585280000000  0.2434040000000 -0.2371460000000 1.0  -0.10
S      3 -0.0585280000000 -0.2434040000000 -0.2371460000000 1.0  -0.10
Fe     4  0.4400500000000 -0.1410300000000 -0.2006060000000 1.0  -3.87
Fe     4  0.4400500000000  0.1410300000000 -0.2006060000000 1.0  -3.87
Fe     4  0.4431140000000  0.0000000000000  0.1506440000000 1.0  -3.82
END
