TITL LFSO-Li2Fe3S3O-201025-092440-787f6b 0.0098 334.646614 -8.67028700E+003 -24.0000 24.1494 18 (P31m) n - 1
REM
REM Run started: Sun, 25 Oct 2020 14:55:59 +0000 in /scratch/scratch/uccabz1/launch_tmp/launcher_2020-10-25-09-24-38-102123
REM CASTEP 19.11| from code version Version unavailable
REM Functional Perdew Burke Ernzerhof Relativity Koelling-Harmon Dispersion off
REM Cut-off 340.0000 eV Grid scale 1.7500 Gmax 16.5316 1/A FBSC none
REM MP grid 3 3 2 Offset 0.000 0.000 0.000 No. kpts 5 Spacing 0.07
REM Total runtime: 20215.1 s
REM Overall efficiency: 78.8333 %
REM
REM
REM
REM compiler GCC version 4.9.2
REM options -cpp -iprefix /scratch/UCL/applications/gcc/4.9.2/bin/../lib/gcc/x86_64-unknown-linux-gnu/4.9.2/ -mtune=corei7 -march=x86-64 -g -O2
REM COMMAND_LINE
REM seed 557789618 -1046342482 2084573117 -1109373561 1771089113 -1299452251 -1760425700 1433112727 -1517623248 66648058 -1462585706 -1771552694
REM
REM S 3|1.8|5|6|7|30:31:32(qc=5)
REM O 2|1.5|12|13|15|20:21(qc=5)
REM Li 1|1.3|8|9|10|10U:20(qc=5)
REM Fe 3|2.2|2.0|1.0|8|9|10|40:41:32(qc=5)
REM Fe d:4.0 
REM
CELL 1.54180    6.86683    6.86683    8.19490   90.00000   90.00000  120.00000
LATT -1
SFAC Li O  S  Fe 
Li     1 -0.3375190000000  0.0036190000000  0.0359570000000 1.0   0.05
Li     1  0.3411380000000  0.3375190000000  0.0359570000000 1.0   0.05
Li     1 -0.0036190000000 -0.3411380000000  0.0359570000000 1.0   0.05
Li     1 -0.3333330000000  0.3333330000000 -0.3853940000000 1.0   0.12
O      2 -0.0000000000000 -0.0000000000000  0.3925790000000 1.0  -0.14
O      2  0.3333330000000 -0.3333330000000  0.3911580000000 1.0  -0.14
S      3 -0.3306550000000 -0.3302490000000  0.0882570000000 1.0  -0.14
S      3  0.0004060000000  0.3306550000000  0.0882570000000 1.0  -0.14
S      3  0.3302490000000 -0.0004060000000  0.0882570000000 1.0  -0.14
S      3 -0.3350350000000  0.0069780000000 -0.3126670000000 1.0  -0.10
S      3  0.3420130000000  0.3350350000000 -0.3126670000000 1.0  -0.10
S      3 -0.0069780000000 -0.3420130000000 -0.3126670000000 1.0  -0.10
Fe     4  0.1667030000000 -0.1666570000000  0.3775260000000 1.0  -3.87
Fe     4 -0.3333600000000 -0.1667030000000  0.3775260000000 1.0  -3.87
Fe     4  0.1666570000000  0.3333600000000  0.3775260000000 1.0  -3.87
Fe     4  0.3139800000000 -0.0161110000000 -0.1976980000000 1.0  -3.89
Fe     4 -0.3300910000000 -0.3139800000000 -0.1976980000000 1.0  -3.89
Fe     4  0.0161110000000  0.3300910000000 -0.1976980000000 1.0  -3.89
END
