TITL LFSO-Li6FeSO3-201028-050150-4dbeb3 -0.0199 159.568614 -3.67595374E+003 3.99997 4.12192 11 (P2/m) n - 1
REM
REM Run started: Wed, 28 Oct 2020 06:55:16 +0000 in /scratch/scratch/uccabz1/launch_tmp/launcher_2020-10-28-05-01-48-658259
REM CASTEP 19.11| from code version Version unavailable
REM Functional Perdew Burke Ernzerhof Relativity Koelling-Harmon Dispersion off
REM Cut-off 340.0000 eV Grid scale 1.7500 Gmax 16.5316 1/A FBSC none
REM MP grid 3 4 3 Offset 0.000 0.000 0.000 No. kpts 10 Spacing 0.07
REM Total runtime: 7288.72 s
REM Overall efficiency: 89.8333 %
REM
REM
REM
REM compiler GCC version 4.9.2
REM options -cpp -iprefix /scratch/UCL/applications/gcc/4.9.2/bin/../lib/gcc/x86_64-unknown-linux-gnu/4.9.2/ -mtune=corei7 -march=x86-64 -g -O2
REM COMMAND_LINE
REM seed 49926480 1340571087 -1168798669 -660761016 -482274477 -1602424577 -1983918753 1449103523 -1815589342 -137773329 375575413 425632909
REM
REM S 3|1.8|5|6|7|30:31:32(qc=5)
REM O 2|1.5|12|13|15|20:21(qc=5)
REM Li 1|1.3|8|9|10|10U:20(qc=5)
REM Fe 3|2.2|2.0|1.0|8|9|10|40:41:32(qc=5)
REM Fe d:4.0 
REM
CELL 1.54180    5.46233    4.04729    7.22216   90.00000   91.99099   90.00000
LATT -1
SFAC Li O  S  Fe 
Li     1 -0.1498780000000 -0.2318110000000  0.3169260000000 1.0  -0.01
Li     1  0.1498780000000 -0.2318110000000 -0.3169260000000 1.0  -0.01
Li     1  0.1498780000000  0.2318110000000 -0.3169260000000 1.0  -0.01
Li     1 -0.1498780000000  0.2318110000000  0.3169260000000 1.0  -0.01
Li     1  0.3803290000000  0.5000000000000  0.2567750000000 1.0  -0.03
Li     1 -0.3803290000000 -0.5000000000000 -0.2567750000000 1.0  -0.03
O      2  0.4423450000000 -0.0000000000000 -0.2536480000000 1.0   0.07
O      2 -0.4423450000000  0.0000000000000  0.2536480000000 1.0   0.07
O      2  0.0000000000000 -0.0000000000000 -0.5000000000000 1.0   0.00
S      3  0.0000000000000  0.5000000000000  0.0000000000000 1.0   0.16
Fe     4  0.5000000000000 -0.0000000000000  0.0000000000000 1.0   3.82
END
