TITL LFSO-Li2Fe3S2O2-201022-122318-2c581f -0.1147 219.422168 -4.46914101E+003 12.0000 12.1755 9 (P2) n - 1
REM
REM Run started: Thu, 22 Oct 2020 16:02:14 +0100 in /lustre/scratch/uccabz1/launch_tmp/launcher_2020-10-22-11-23-17-362602
REM CASTEP 20.1 from code version af48c487+ pr-geom-scf-spinfix Tue Jun 2 15:39:59 2020 +0100
REM Functional Perdew Burke Ernzerhof Relativity Koelling-Harmon Dispersion off
REM Cut-off 340.0000 eV Grid scale 1.7500 Gmax 16.5316 1/A FBSC none
REM MP grid 6 2 3 Offset 0.000 0.000 0.000 No. kpts 12 Spacing 0.07
REM Total runtime: 15641.2 s
REM Overall efficiency: 80.5 %
REM
REM
REM
REM compiler GCC version 4.9.2
REM options -cpp -iprefix /lustre/shared/ucl/apps/gcc/4.9.2/bin/../lib/gcc/x86_64-unknown-linux-gnu/4.9.2/ -mtune=corei7 -march=x86-64 -g -Og
REM COMMAND_LINE
REM seed 1401501243 1829727504 118427535 -1573694895 -2073202776 1281885439 -1886053121 -668196916 1751241821 471080252 -907962847 -185848665
REM
REM S 3|1.8|5|6|7|30:31:32(qc=5)
REM O 2|1.5|12|13|15|20:21(qc=5)
REM Li 1|1.3|8|9|10|10U:20(qc=5)
REM Fe 3|2.2|2.0|1.0|8|9|10|40:41:32(qc=5)
REM Fe d:4.0 
REM
CELL 1.54180    3.56400   14.47429    6.23390   90.00000   90.00000  136.97513
LATT -1
SFAC Li O  S  Fe 
Li     1 -0.2974670000000 -0.2701350000000 -0.1347600000000 1.0  -0.01
Li     1  0.2974670000000  0.2701350000000 -0.1347600000000 1.0  -0.01
O      2 -0.5285040000000 -0.3667260000000  0.1160550000000 1.0   0.16
O      2  0.5285040000000  0.3667260000000  0.1160550000000 1.0   0.16
S      3  0.3140810000000 -0.2303030000000 -0.3852970000000 1.0   0.15
S      3 -0.3140810000000  0.2303030000000 -0.3852970000000 1.0   0.15
Fe     4 -0.3461630000000 -0.2827930000000  0.3912530000000 1.0   3.77
Fe     4  0.3461630000000  0.2827930000000  0.3912530000000 1.0   3.77
Fe     4 -0.5000000000000  0.5000000000000  0.1096910000000 1.0   3.88
END
