TITL LFSO-Li6FeSO3-201028-080710-bf8363 0.0218 141.190712 -3.67905840E+003 4.00000 4.07395 11 (Pm) n - 1
REM
REM Run started: Wed, 28 Oct 2020 09:40:15 +0000 in /scratch/scratch/uccabz1/launch_tmp/launcher_2020-10-28-08-07-08-725043
REM CASTEP 19.11| from code version Version unavailable
REM Functional Perdew Burke Ernzerhof Relativity Koelling-Harmon Dispersion off
REM Cut-off 340.0000 eV Grid scale 1.7500 Gmax 16.5316 1/A FBSC none
REM MP grid 5 3 3 Offset 0.000 0.000 0.000 No. kpts 16 Spacing 0.07
REM Total runtime: 5646.56 s
REM Overall efficiency: 91.3077 %
REM
REM
REM
REM compiler GCC version 4.9.2
REM options -cpp -iprefix /scratch/UCL/applications/gcc/4.9.2/bin/../lib/gcc/x86_64-unknown-linux-gnu/4.9.2/ -mtune=corei7 -march=x86-64 -g -O2
REM COMMAND_LINE
REM seed -847157571 1899597491 2103954482 1143550216 51431972 -1077138878 1488270739 -108702514 -436795551 -1272943525 1202343189 -813303541
REM
REM S 3|1.8|5|6|7|30:31:32(qc=5)
REM O 2|1.5|12|13|15|20:21(qc=5)
REM Li 1|1.3|8|9|10|10U:20(qc=5)
REM Fe 3|2.2|2.0|1.0|8|9|10|40:41:32(qc=5)
REM Fe d:4.0 
REM
CELL 1.54180    3.76005    5.96974    6.83888   90.00000   90.00000  113.10963
LATT -1
SFAC Li O  S  Fe 
Li     1  0.5215060000000  0.5398240000000 -0.1715940000000 1.0   0.01
Li     1  0.5215060000000  0.5398240000000  0.1715940000000 1.0   0.01
Li     1 -0.1631750000000  0.2102980000000 -0.2007010000000 1.0   0.00
Li     1 -0.1631750000000  0.2102980000000  0.2007010000000 1.0   0.00
Li     1  0.1555980000000 -0.2205430000000  0.1911800000000 1.0  -0.05
Li     1  0.1555980000000 -0.2205430000000 -0.1911800000000 1.0  -0.05
O      2 -0.2863060000000 -0.1201280000000  0.2250150000000 1.0   0.07
O      2 -0.2863060000000 -0.1201280000000 -0.2250150000000 1.0   0.07
O      2 -0.0432990000000 -0.5301390000000  0.0000000000000 1.0   0.00
S      3 -0.0386560000000  0.4811700000000  0.5000000000000 1.0   0.12
Fe     4 -0.3302870000000 -0.1820900000000  0.5000000000000 1.0   3.81
END
