TITL LFSO-Li2Fe4S3O2-201026-043557-13e096 0.9763 365.511277 -1.12676464E+004 31.9987 32.1979 22 (R3) n - 1
REM
REM Run started: Mon, 26 Oct 2020 16:14:17 +0000 in /lustre/scratch/uccabz1/launch_tmp/launcher_2020-10-26-15-58-32-270792
REM CASTEP 20.1 from code version af48c487+ pr-geom-scf-spinfix Tue Jun 2 15:39:59 2020 +0100
REM Functional Perdew Burke Ernzerhof Relativity Koelling-Harmon Dispersion off
REM Cut-off 340.0000 eV Grid scale 1.7500 Gmax 16.5316 1/A FBSC none
REM MP grid 2 2 2 Offset 0.000 0.000 0.000 No. kpts 2 Spacing 0.07
REM Total runtime: 37120 s
REM Overall efficiency: 84.5 %
REM
REM
REM
REM compiler GCC version 4.9.2
REM options -cpp -iprefix /lustre/shared/ucl/apps/gcc/4.9.2/bin/../lib/gcc/x86_64-unknown-linux-gnu/4.9.2/ -mtune=corei7 -march=x86-64 -g -Og
REM COMMAND_LINE
REM seed 1274620991 2142126703 -2076063918 -671299515 -43186756 -1350856038 -590123566 1300905331 1937054729 -1484901309 1524230801 -1545865277
REM
REM S 3|1.8|5|6|7|30:31:32(qc=5)
REM O 2|1.5|12|13|15|20:21(qc=5)
REM Li 1|1.3|8|9|10|10U:20(qc=5)
REM Fe 3|2.2|2.0|1.0|8|9|10|40:41:32(qc=5)
REM Fe d:4.0 
REM
CELL 1.54180    7.19892    7.19892    7.19892   96.40900   96.40900   96.40900
LATT -1
SFAC Li O  S  Fe 
Li     1  0.2184590000000 -0.2145710000000  0.0457550000000 1.0  -0.05
Li     1  0.0457550000000  0.2184590000000 -0.2145710000000 1.0  -0.05
Li     1 -0.2145710000000  0.0457550000000  0.2184590000000 1.0  -0.05
Li     1 -0.3309810000000 -0.3309810000000 -0.3309810000000 1.0  -0.13
O      2 -0.1030190000000 -0.4040030000000 -0.2450250000000 1.0   0.28
O      2 -0.2450250000000 -0.1030190000000 -0.4040030000000 1.0   0.28
O      2 -0.4040030000000 -0.2450250000000 -0.1030190000000 1.0   0.28
O      2 -0.4924090000000 -0.4924090000000 -0.4924090000000 1.0   0.17
S      3  0.0487660000000  0.3485790000000  0.4783720000000 1.0   0.12
S      3  0.4783720000000  0.0487660000000  0.3485790000000 1.0   0.12
S      3  0.3485790000000  0.4783720000000  0.0487660000000 1.0   0.12
S      3 -0.0781280000000 -0.2427510000000  0.2030260000000 1.0   0.08
S      3  0.2030260000000 -0.0781280000000 -0.2427510000000 1.0   0.08
S      3 -0.2427510000000  0.2030260000000 -0.0781280000000 1.0   0.08
Fe     4 -0.0174290000000 -0.2921630000000  0.5328280000000 1.0   3.81
Fe     4  0.5328280000000 -0.0174290000000 -0.2921630000000 1.0   3.81
Fe     4 -0.2921630000000  0.5328280000000 -0.0174290000000 1.0   3.81
Fe     4 -0.3043250000000  0.3097160000000  0.5576830000000 1.0   3.86
Fe     4  0.5576830000000 -0.3043250000000  0.3097160000000 1.0   3.86
Fe     4  0.3097160000000  0.5576830000000 -0.3043250000000 1.0   3.86
Fe     4  0.2631260000000  0.2631260000000  0.2631260000000 1.0   3.91
Fe     4 -0.1295900000000 -0.1295900000000 -0.1295900000000 1.0   3.74
END
