TITL LFSO-Li2Fe2S2O-201023-230939-9b868c 0.1048 712.758785 -9.50770613E+003 17.9895 20.5960 21 (P32) n - 1
REM
REM Run started: Sat, 24 Oct 2020 19:09:28 +0100 in /lustre/scratch/uccabz1/launch_tmp/launcher_2020-10-23-22-09-38-033382
REM CASTEP 20.1 from code version af48c487+ pr-geom-scf-spinfix Tue Jun 2 15:39:59 2020 +0100
REM Functional Perdew Burke Ernzerhof Relativity Koelling-Harmon Dispersion off
REM Cut-off 340.0000 eV Grid scale 1.7500 Gmax 16.5316 1/A FBSC none
REM MP grid 5 2 2 Offset 0.000 0.000 0.000 No. kpts 10 Spacing 0.07
REM Total runtime: 78234.2 s
REM Overall efficiency: 76.6667 %
REM
REM
REM
REM compiler GCC version 4.9.2
REM options -cpp -iprefix /lustre/shared/ucl/apps/gcc/4.9.2/bin/../lib/gcc/x86_64-unknown-linux-gnu/4.9.2/ -mtune=corei7 -march=x86-64 -g -Og
REM COMMAND_LINE
REM seed -2037128718 -1439656690 222467688 -894554051 1842447754 1804757214 274904943 -1242269523 -282466881 320091754 -1089082415 -1504794574
REM
REM S 3|1.8|5|6|7|30:31:32(qc=5)
REM O 2|1.5|12|13|15|20:21(qc=5)
REM Li 1|1.3|8|9|10|10U:20(qc=5)
REM Fe 3|2.2|2.0|1.0|8|9|10|40:41:32(qc=5)
REM Fe d:4.0 
REM
CELL 1.54180    3.38968   15.58211   15.58211  120.00000   90.00000   90.00000
LATT -1
SFAC Li O  S  Fe 
Li     1  0.1418190000000  0.1037500000000  0.0206400000000 1.0  -0.05
Li     1 -0.1915140000000 -0.0206400000000  0.0831100000000 1.0  -0.05
Li     1 -0.5248470000000 -0.0831100000000 -0.1037500000000 1.0  -0.05
Li     1 -0.4122620000000 -0.2482070000000  0.2934580000000 1.0  -0.03
Li     1  0.2544050000000 -0.2934580000000 -0.5416650000000 1.0  -0.03
Li     1 -0.0789280000000  0.5416650000000  0.2482070000000 1.0  -0.03
O      2  0.2588240000000  0.0225390000000 -0.1108380000000 1.0   0.13
O      2 -0.0745090000000  0.1108380000000  0.1333770000000 1.0   0.13
O      2 -0.4078420000000 -0.1333770000000 -0.0225390000000 1.0   0.13
S      3  0.4270270000000 -0.4664740000000  0.3534780000000 1.0  -0.13
S      3  0.0936940000000 -0.3534780000000  0.1800480000000 1.0  -0.13
S      3 -0.2396400000000 -0.1800480000000  0.4664740000000 1.0  -0.13
S      3 -0.2334940000000  0.0474120000000 -0.3161820000000 1.0  -0.08
S      3  0.4331720000000  0.3161820000000 -0.6364060000000 1.0  -0.08
S      3  0.0998390000000  0.6364060000000 -0.0474120000000 1.0  -0.08
Fe     4  0.4210270000000  0.1743700000000  0.2116970000000 1.0   3.77
Fe     4  0.0876930000000 -0.2116970000000 -0.0373270000000 1.0   3.77
Fe     4 -0.2456400000000  0.0373270000000 -0.1743700000000 1.0   3.77
Fe     4 -0.0754470000000  0.4245550000000  0.3609060000000 1.0   2.40
Fe     4  0.5912200000000 -0.3609060000000  0.0636480000000 1.0   2.40
Fe     4  0.2578860000000 -0.0636480000000 -0.4245550000000 1.0   2.40
END
