TITL LFSO-LiFe3S4O-201028-122237-408ca4 -0.0109 464.354272 -8.87260797E+003 18.0350 23.0891 18 (Pma2) n - 1
REM
REM Run started: Wed, 28 Oct 2020 18:18:27 +0000 in /scratch/scratch/uccabz1/launch_tmp/launcher_2020-10-28-12-22-35-920543
REM CASTEP 19.11| from code version Version unavailable
REM Functional Perdew Burke Ernzerhof Relativity Koelling-Harmon Dispersion off
REM Cut-off 340.0000 eV Grid scale 1.7500 Gmax 16.5316 1/A FBSC none
REM MP grid 5 2 1 Offset 0.000 0.000 0.000 No. kpts 3 Spacing 0.07
REM Total runtime: 21443.2 s
REM Overall efficiency: 69.6923 %
REM
REM
REM
REM compiler GCC version 4.9.2
REM options -cpp -iprefix /scratch/UCL/applications/gcc/4.9.2/bin/../lib/gcc/x86_64-unknown-linux-gnu/4.9.2/ -mtune=corei7 -march=x86-64 -g -O2
REM COMMAND_LINE
REM seed -978904578 -1733530411 -412038687 890810196 -304492973 -1845250596 -773901001 -861309673 -1379453223 1839933622 -1216339555 901436452
REM
REM S 3|1.8|5|6|7|30:31:32(qc=5)
REM O 2|1.5|12|13|15|20:21(qc=5)
REM Li 1|1.3|8|9|10|10U:20(qc=5)
REM Fe 3|2.2|2.0|1.0|8|9|10|40:41:32(qc=5)
REM Fe d:4.0 
REM
CELL 1.54180    3.49177    8.48877   15.66605   90.00000   90.00000   90.00000
LATT -1
SFAC Li O  S  Fe 
Li     1 -0.1542480000000  0.2500000000000  0.0062210000000 1.0   0.03
Li     1 -0.1542480000000 -0.2500000000000 -0.0062210000000 1.0   0.03
O      2 -0.1300100000000  0.2500000000000 -0.4192630000000 1.0  -0.20
O      2 -0.1300100000000 -0.2500000000000  0.4192630000000 1.0  -0.20
S      3 -0.1290860000000 -0.0219960000000  0.1048640000000 1.0  -0.10
S      3 -0.1290860000000  0.0219960000000 -0.1048640000000 1.0  -0.10
S      3 -0.1290860000000  0.4780040000000 -0.1048640000000 1.0  -0.10
S      3 -0.1290860000000 -0.4780040000000  0.1048640000000 1.0  -0.10
S      3  0.3557340000000 -0.0040070000000 -0.3395260000000 1.0  -0.48
S      3  0.3557340000000  0.0040070000000  0.3395260000000 1.0  -0.48
S      3  0.3557340000000  0.4959930000000  0.3395260000000 1.0  -0.48
S      3  0.3557340000000 -0.4959930000000 -0.3395260000000 1.0  -0.48
Fe     4  0.3734900000000  0.0522470000000 -0.2006990000000 1.0   3.63
Fe     4  0.3734900000000 -0.0522470000000  0.2006990000000 1.0   3.63
Fe     4  0.3734900000000  0.5522470000000  0.2006990000000 1.0   3.63
Fe     4  0.3734900000000 -0.5522470000000 -0.2006990000000 1.0   3.63
Fe     4  0.3716400000000 -0.2500000000000  0.3908740000000 1.0   3.08
Fe     4  0.3716400000000  0.2500000000000 -0.3908740000000 1.0   3.08
END
