TITL LFSO-Li4Fe3S4O-201029-073239-6d3d13 0.0258 270.112291 -5.03491700E+003 11.9979 12.1760 12 (R3) n - 1
REM
REM Run started: Thu, 29 Oct 2020 10:15:35 +0000 in /lustre/scratch/uccabz1/launch_tmp/launcher_2020-10-29-07-32-37-463730
REM CASTEP 20.1 from code version af48c487+ pr-geom-scf-spinfix Tue Jun 2 15:39:59 2020 +0100
REM Functional Perdew Burke Ernzerhof Relativity Koelling-Harmon Dispersion off
REM Cut-off 340.0000 eV Grid scale 1.7500 Gmax 16.5316 1/A FBSC none
REM MP grid 3 3 3 Offset 0.000 0.000 0.000 No. kpts 6 Spacing 0.07
REM Total runtime: 9852.08 s
REM Overall efficiency: 94.75 %
REM
REM
REM
REM compiler GCC version 4.9.2
REM options -cpp -iprefix /lustre/shared/ucl/apps/gcc/4.9.2/bin/../lib/gcc/x86_64-unknown-linux-gnu/4.9.2/ -mtune=corei7 -march=x86-64 -g -Og
REM COMMAND_LINE
REM seed 860193234 1290914199 -112200954 -2058485225 1346429838 -1370628763 -190950054 1792231800 870060061 -1728624623 -312918764 -1104848064
REM
REM S 3|1.8|5|6|7|30:31:32(qc=5)
REM O 2|1.5|12|13|15|20:21(qc=5)
REM Li 1|1.3|8|9|10|10U:20(qc=5)
REM Fe 3|2.2|2.0|1.0|8|9|10|40:41:32(qc=5)
REM Fe d:4.0 
REM
CELL 1.54180    7.21851    7.21851    7.29371   60.34048   60.34048   60.00000
LATT -1
SFAC Li O  S  Fe 
Li     1 -0.3526230000000  0.0940130000000 -0.3719910000000 1.0  -0.03
Li     1  0.0940130000000 -0.3693990000000 -0.3719910000000 1.0  -0.03
Li     1 -0.3693990000000 -0.3526230000000 -0.3719910000000 1.0  -0.03
Li     1  0.3324290000000  0.3324290000000  0.0027120000000 1.0  -0.04
O      2 -0.1878190000000 -0.1878190000000 -0.4365440000000 1.0   0.04
S      3  0.2203080000000 -0.2816740000000 -0.1674140000000 1.0   0.13
S      3 -0.2816740000000  0.2287810000000 -0.1674140000000 1.0   0.13
S      3  0.2287810000000  0.2203080000000 -0.1674140000000 1.0   0.13
S      3 -0.0922930000000 -0.0922930000000  0.2768800000000 1.0   0.04
Fe     4 -0.1739350000000  0.3204050000000  0.0317920000000 1.0   3.89
Fe     4  0.3204050000000 -0.1782620000000  0.0317920000000 1.0   3.89
Fe     4 -0.1782620000000 -0.1739350000000  0.0317920000000 1.0   3.89
END
