TITL LFSO-Li2Fe3S2O2-201022-085222-79d8ec -0.0016 374.499509 -8.93874716E+003 -24.0000 24.2860 18 (P3) n - 1
REM
REM Run started: Thu, 22 Oct 2020 16:00:09 +0100 in /lustre/scratch/uccabz1/launch_tmp/launcher_2020-10-22-07-52-19-818960
REM CASTEP 20.1 from code version af48c487+ pr-geom-scf-spinfix Tue Jun 2 15:39:59 2020 +0100
REM Functional Perdew Burke Ernzerhof Relativity Koelling-Harmon Dispersion off
REM Cut-off 340.0000 eV Grid scale 1.7500 Gmax 16.5316 1/A FBSC none
REM MP grid 2 2 3 Offset 0.000 0.000 0.000 No. kpts 6 Spacing 0.07
REM Total runtime: 29215.9 s
REM Overall efficiency: 92.875 %
REM
REM
REM
REM compiler GCC version 4.9.2
REM options -cpp -iprefix /lustre/shared/ucl/apps/gcc/4.9.2/bin/../lib/gcc/x86_64-unknown-linux-gnu/4.9.2/ -mtune=corei7 -march=x86-64 -g -Og
REM COMMAND_LINE
REM seed 1478746134 726589480 -1539796885 733007921 1501372887 -1529076179 778567799 -1460499630 -437860287 -60493619 1271057587 1700234383
REM
REM S 3|1.8|5|6|7|30:31:32(qc=5)
REM O 2|1.5|12|13|15|20:21(qc=5)
REM Li 1|1.3|8|9|10|10U:20(qc=5)
REM Fe 3|2.2|2.0|1.0|8|9|10|40:41:32(qc=5)
REM Fe d:4.0 
REM
CELL 1.54180    8.54875    8.54875    5.91719   90.00000   90.00000  120.00000
LATT -1
SFAC Li O  S  Fe 
Li     1  0.1591900000000 -0.1315980000000  0.0140170000000 1.0   0.00
Li     1 -0.2907880000000 -0.1591900000000  0.0140170000000 1.0   0.00
Li     1  0.1315980000000  0.2907880000000  0.0140170000000 1.0   0.00
Li     1  0.3333330000000 -0.3333330000000 -0.3131500000000 1.0   0.05
O      2 -0.3007380000000 -0.0737350000000  0.2917500000000 1.0  -0.21
O      2  0.2270030000000  0.3007380000000  0.2917500000000 1.0  -0.21
O      2  0.0737350000000 -0.2270030000000  0.2917500000000 1.0  -0.21
O      2 -0.3333330000000  0.3333330000000  0.3152240000000 1.0  -0.19
S      3  0.0174930000000  0.4634150000000 -0.2637580000000 1.0  -0.18
S      3  0.4459230000000 -0.0174930000000 -0.2637580000000 1.0  -0.18
S      3 -0.4634150000000 -0.4459230000000 -0.2637580000000 1.0  -0.18
S      3  0.0000000000000 -0.0000000000000 -0.2296130000000 1.0  -0.15
Fe     4 -0.0926520000000  0.5298250000000  0.3844950000000 1.0  -3.79
Fe     4  0.6224780000000  0.0926520000000  0.3844950000000 1.0  -3.79
Fe     4 -0.5298250000000 -0.6224780000000  0.3844950000000 1.0  -3.79
Fe     4 -0.2639970000000 -0.1928910000000 -0.4598880000000 1.0  -3.73
Fe     4  0.0711050000000  0.2639970000000 -0.4598880000000 1.0  -3.73
Fe     4  0.1928910000000 -0.0711050000000 -0.4598880000000 1.0  -3.73
END
