TITL LFSO-Li6FeS3O-201027-105947-be58ef -0.0028 241.267277 -3.40903287E+003 4.00000 4.15661 11 (Fmm2) n - 1
REM
REM Run started: Tue, 27 Oct 2020 11:57:59 +0000 in /lustre/scratch/uccabz1/launch_tmp/launcher_2020-10-27-10-59-46-232241
REM CASTEP 20.1 from code version af48c487+ pr-geom-scf-spinfix Tue Jun 2 15:39:59 2020 +0100
REM Functional Perdew Burke Ernzerhof Relativity Koelling-Harmon Dispersion off
REM Cut-off 340.0000 eV Grid scale 1.7500 Gmax 16.5316 1/A FBSC none
REM MP grid 3 3 3 Offset 0.000 0.000 0.000 No. kpts 8 Spacing 0.07
REM Total runtime: 4141.45 s
REM Overall efficiency: 79.1429 %
REM
REM
REM
REM compiler GCC version 4.9.2
REM options -cpp -iprefix /lustre/shared/ucl/apps/gcc/4.9.2/bin/../lib/gcc/x86_64-unknown-linux-gnu/4.9.2/ -mtune=corei7 -march=x86-64 -g -Og
REM COMMAND_LINE
REM seed 1744234863 -1169404613 650578506 775849723 1436660165 443712246 295917357 1434184125 1323240677 -1774486624 -982861602 114225561
REM
REM S 3|1.8|5|6|7|30:31:32(qc=5)
REM O 2|1.5|12|13|15|20:21(qc=5)
REM Li 1|1.3|8|9|10|10U:20(qc=5)
REM Fe 3|2.2|2.0|1.0|8|9|10|40:41:32(qc=5)
REM Fe d:4.0 
REM
CELL 1.54180    7.42907    6.35535    7.31156   72.72648   59.46686   54.23422
LATT -1
SFAC Li O  S  Fe 
Li     1 -0.2662490000000 -0.2397570000000  0.4289220000000 1.0  -0.03
Li     1 -0.1626720000000  0.2397570000000  0.4289220000000 1.0  -0.03
Li     1  0.0770840000000 -0.2397570000000  0.4289220000000 1.0  -0.03
Li     1  0.4939940000000  0.2397570000000  0.4289220000000 1.0  -0.03
Li     1  0.0620500000000 -0.5000000000000 -0.1241000000000 1.0   0.05
Li     1  0.5620500000000 -0.5000000000000 -0.1241000000000 1.0   0.05
O      2 -0.1983280000000  0.0000000000000  0.3966560000000 1.0   0.01
S      3  0.3823910000000 -0.4143440000000 -0.3504390000000 1.0   0.07
S      3 -0.0319520000000  0.4143440000000 -0.3504390000000 1.0   0.07
S      3 -0.5826950000000  0.0000000000000  0.1653890000000 1.0   0.22
Fe     4  0.2403170000000  0.0000000000000 -0.4806340000000 1.0   3.66
END
