TITL LFSO-Li4Fe3S4O-201028-200606-1b936e 0.0347 283.713357 -5.03836286E+003 12.0000 12.1347 12 (P3) n - 1
REM
REM Run started: Wed, 28 Oct 2020 21:30:04 +0000 in /scratch/scratch/uccabz1/launch_tmp/launcher_2020-10-28-20-06-04-421737
REM CASTEP 19.11| from code version Version unavailable
REM Functional Perdew Burke Ernzerhof Relativity Koelling-Harmon Dispersion off
REM Cut-off 340.0000 eV Grid scale 1.7500 Gmax 16.5316 1/A FBSC none
REM MP grid 3 3 3 Offset 0.000 0.000 0.000 No. kpts 8 Spacing 0.07
REM Total runtime: 5319.8 s
REM Overall efficiency: 86 %
REM
REM
REM
REM compiler GCC version 4.9.2
REM options -cpp -iprefix /scratch/UCL/applications/gcc/4.9.2/bin/../lib/gcc/x86_64-unknown-linux-gnu/4.9.2/ -mtune=corei7 -march=x86-64 -g -O2
REM COMMAND_LINE
REM seed 262117044 261386109 -313241954 517100496 13479293 281328534 -67278153 -1997581045 1627613983 418844704 -2068900659 1847488483
REM
REM S 3|1.8|5|6|7|30:31:32(qc=5)
REM O 2|1.5|12|13|15|20:21(qc=5)
REM Li 1|1.3|8|9|10|10U:20(qc=5)
REM Fe 3|2.2|2.0|1.0|8|9|10|40:41:32(qc=5)
REM Fe d:4.0 
REM
CELL 1.54180    7.34107    7.34107    6.07898   90.00000   90.00000  120.00000
LATT -1
SFAC Li O  S  Fe 
Li     1 -0.0253070000000 -0.2249020000000  0.2937500000000 1.0  -0.03
Li     1  0.2249020000000  0.1995950000000  0.2937500000000 1.0  -0.03
Li     1 -0.1995950000000  0.0253070000000  0.2937500000000 1.0  -0.03
Li     1 -0.3333330000000  0.3333330000000 -0.3230160000000 1.0  -0.01
O      2  0.0000000000000  0.0000000000000  0.4800430000000 1.0   0.11
S      3  0.5372340000000 -0.0039630000000 -0.4318480000000 1.0   0.13
S      3  0.0039630000000  0.5411960000000 -0.4318480000000 1.0   0.13
S      3 -0.5411960000000 -0.5372340000000 -0.4318480000000 1.0   0.13
S      3  0.0000000000000  0.0000000000000 -0.0346180000000 1.0   0.03
Fe     4 -0.2891870000000 -0.1895060000000 -0.3209740000000 1.0   3.86
Fe     4  0.1895060000000 -0.0996810000000 -0.3209740000000 1.0   3.86
Fe     4  0.0996810000000  0.2891870000000 -0.3209740000000 1.0   3.86
END
