TITL LFSO-Li3FeS2O-201025-063415-547bf1 -0.2031 256.519376 -5.01371621E+003 6.00000 6.54617 14 (Pc) n - 1
REM
REM Run started: Sun, 25 Oct 2020 09:15:59 +0000 in /lustre/scratch/uccabz1/launch_tmp/launcher_2020-10-25-06-34-12-610517
REM CASTEP 20.1 from code version af48c487+ pr-geom-scf-spinfix Tue Jun 2 15:39:59 2020 +0100
REM Functional Perdew Burke Ernzerhof Relativity Koelling-Harmon Dispersion off
REM Cut-off 340.0000 eV Grid scale 1.7500 Gmax 16.5316 1/A FBSC none
REM MP grid 3 3 3 Offset 0.000 0.000 0.000 No. kpts 10 Spacing 0.07
REM Total runtime: 10654.3 s
REM Overall efficiency: 75.0833 %
REM
REM
REM
REM compiler GCC version 4.9.2
REM options -cpp -iprefix /lustre/shared/ucl/apps/gcc/4.9.2/bin/../lib/gcc/x86_64-unknown-linux-gnu/4.9.2/ -mtune=corei7 -march=x86-64 -g -Og
REM COMMAND_LINE
REM seed 120192037 -1868317933 276982214 -342558481 522720361 467739948 -1169208348 301718826 -1166783820 841620947 371454881 1474583731
REM
REM S 3|1.8|5|6|7|30:31:32(qc=5)
REM O 2|1.5|12|13|15|20:21(qc=5)
REM Li 1|1.3|8|9|10|10U:20(qc=5)
REM Fe 3|2.2|2.0|1.0|8|9|10|40:41:32(qc=5)
REM Fe d:4.0 
REM
CELL 1.54180    5.88139    5.74485    7.64153   90.00000   90.00000   83.47938
LATT -1
SFAC Li O  S  Fe 
Li     1  0.4036720000000 -0.1093110000000  0.3831310000000 1.0  -0.00
Li     1 -0.0963280000000 -0.1093110000000 -0.3831310000000 1.0  -0.00
Li     1  0.4438460000000  0.0436030000000 -0.1974000000000 1.0  -0.03
Li     1 -0.0561540000000  0.0436030000000  0.1974000000000 1.0  -0.03
Li     1 -0.3598920000000  0.4518410000000 -0.4084050000000 1.0  -0.03
Li     1  0.1401080000000  0.4518410000000  0.4084050000000 1.0  -0.03
O      2 -0.2871930000000  0.1574810000000 -0.2871300000000 1.0  -0.01
O      2  0.2128070000000  0.1574810000000  0.2871300000000 1.0  -0.01
S      3 -0.1384620000000  0.2517360000000 -0.1040110000000 1.0  -0.05
S      3 -0.6384620000000  0.2517360000000  0.1040110000000 1.0  -0.05
S      3 -0.2105590000000 -0.3057670000000  0.3480100000000 1.0   0.01
S      3  0.2894410000000 -0.3057670000000 -0.3480100000000 1.0   0.01
Fe     4  0.1690120000000  0.4677310000000 -0.1241600000000 1.0   3.11
Fe     4 -0.3309880000000  0.4677310000000  0.1241600000000 1.0   3.11
END
