TITL LFSO-LiFe3S4O-201028-123056-36fa84 -0.0070 407.007224 -8.87617690E+003 -22.0000 22.9552 18 (P2/m) n - 1
REM
REM Run started: Wed, 28 Oct 2020 21:06:52 +0000 in /lustre/scratch/uccabz1/launch_tmp/launcher_2020-10-28-12-30-54-605146
REM CASTEP 20.1 from code version af48c487+ pr-geom-scf-spinfix Tue Jun 2 15:39:59 2020 +0100
REM Functional Perdew Burke Ernzerhof Relativity Koelling-Harmon Dispersion off
REM Cut-off 340.0000 eV Grid scale 1.7500 Gmax 16.5316 1/A FBSC none
REM MP grid 4 2 2 Offset 0.000 0.000 0.000 No. kpts 4 Spacing 0.07
REM Total runtime: 31318.6 s
REM Overall efficiency: 83.8889 %
REM
REM
REM
REM compiler GCC version 4.9.2
REM options -cpp -iprefix /lustre/shared/ucl/apps/gcc/4.9.2/bin/../lib/gcc/x86_64-unknown-linux-gnu/4.9.2/ -mtune=corei7 -march=x86-64 -g -Og
REM COMMAND_LINE
REM seed 553052608 -221323593 1433833251 -1614587811 -1046733077 977215151 435046338 371748276 -1386282076 398921587 -1262371654 -1246536060
REM
REM S 3|1.8|5|6|7|30:31:32(qc=5)
REM O 2|1.5|12|13|15|20:21(qc=5)
REM Li 1|1.3|8|9|10|10U:20(qc=5)
REM Fe 3|2.2|2.0|1.0|8|9|10|40:41:32(qc=5)
REM Fe d:4.0 
REM
CELL 1.54180    3.76539    8.05243   14.05184   90.00000   90.00000  107.19912
LATT -1
SFAC Li O  S  Fe 
Li     1  0.1196310000000 -0.2599660000000  0.0000000000000 1.0  -0.04
Li     1 -0.1196310000000  0.2599660000000  0.0000000000000 1.0  -0.04
O      2  0.0000000000000  0.0000000000000  0.3020320000000 1.0  -0.28
O      2  0.0000000000000  0.0000000000000 -0.3020320000000 1.0  -0.28
S      3 -0.4229720000000 -0.2630460000000  0.1313680000000 1.0  -0.05
S      3  0.4229720000000  0.2630460000000  0.1313680000000 1.0  -0.05
S      3  0.4229720000000  0.2630460000000 -0.1313680000000 1.0  -0.05
S      3 -0.4229720000000 -0.2630460000000 -0.1313680000000 1.0  -0.05
S      3  0.2096260000000 -0.3827270000000 -0.3604520000000 1.0   0.10
S      3 -0.2096260000000  0.3827270000000 -0.3604520000000 1.0   0.10
S      3 -0.2096260000000  0.3827270000000  0.3604520000000 1.0   0.10
S      3  0.2096260000000 -0.3827270000000  0.3604520000000 1.0   0.10
Fe     4  0.1520030000000 -0.1679240000000 -0.2373630000000 1.0  -3.68
Fe     4 -0.1520030000000  0.1679240000000 -0.2373630000000 1.0  -3.68
Fe     4 -0.1520030000000  0.1679240000000  0.2373630000000 1.0  -3.68
Fe     4  0.1520030000000 -0.1679240000000  0.2373630000000 1.0  -3.68
Fe     4 -0.5000000000000  0.5000000000000 -0.2363270000000 1.0  -3.43
Fe     4  0.5000000000000 -0.5000000000000  0.2363270000000 1.0  -3.43
END
