TITL LFSO-Li6FeS3O-201027-152524-997348 0.3240 194.004626 -3.41009067E+003 3.54425 3.74525 11 (Cm) n - 1
REM
REM Run started: Wed, 28 Oct 2020 00:08:28 +0000 in /lustre/scratch/uccabz1/launch_tmp/launcher_2020-10-27-15-25-23-053742
REM CASTEP 20.1 from code version af48c487+ pr-geom-scf-spinfix Tue Jun 2 15:39:59 2020 +0100
REM Functional Perdew Burke Ernzerhof Relativity Koelling-Harmon Dispersion off
REM Cut-off 340.0000 eV Grid scale 1.7500 Gmax 16.5316 1/A FBSC none
REM MP grid 7 7 3 Offset 0.000 0.000 0.000 No. kpts 44 Spacing 0.07
REM Total runtime: 40147.5 s
REM Overall efficiency: 78.4167 %
REM
REM
REM
REM compiler GCC version 4.9.2
REM options -cpp -iprefix /lustre/shared/ucl/apps/gcc/4.9.2/bin/../lib/gcc/x86_64-unknown-linux-gnu/4.9.2/ -mtune=corei7 -march=x86-64 -g -Og
REM COMMAND_LINE
REM seed -1365076657 -1756899514 152496028 -1659033055 -1112887510 -1125609582 2037943470 1524228839 1800578731 1655961138 126638711 414629318
REM
REM S 3|1.8|5|6|7|30:31:32(qc=5)
REM O 2|1.5|12|13|15|20:21(qc=5)
REM Li 1|1.3|8|9|10|10U:20(qc=5)
REM Fe 3|2.2|2.0|1.0|8|9|10|40:41:32(qc=5)
REM Fe d:4.0 
REM
CELL 1.54180    7.60822    7.60822   15.63665  115.62039  115.62039  126.67583
LATT -1
SFAC Li O  S  Fe 
Li     1  0.4087210000000 -0.3925760000000 -0.2090090000000 1.0  -0.07
Li     1 -0.3925760000000  0.4087210000000 -0.2090090000000 1.0  -0.07
Li     1  0.3596960000000 -0.0535400000000  0.2303170000000 1.0  -0.02
Li     1 -0.0535400000000  0.3596960000000  0.2303170000000 1.0  -0.02
Li     1  0.9585870000000  0.7502380000000 -0.2360070000000 1.0  -0.00
Li     1  0.7502380000000  0.9585870000000 -0.2360070000000 1.0  -0.00
O      2  0.5580310000000  0.5580310000000 -0.2864310000000 1.0   0.08
S      3 -0.9511870000000 -0.4457950000000 -0.3517260000000 1.0   0.07
S      3 -0.4457950000000 -0.9511870000000 -0.3517260000000 1.0   0.07
S      3 -0.5589930000000 -0.5589930000000 -0.1069930000000 1.0   0.05
Fe     4 -0.4328400000000 -0.4328400000000  0.3161900000000 1.0   3.45
END
