TITL LFSO-Li5FeS2O2-201025-123243-ab427e -0.0125 344.072058 -6.68888983E+003 10.0000 10.0665 20 (I222) n - 1
REM
REM Run started: Sun, 25 Oct 2020 13:35:42 +0000 in /scratch/scratch/uccabz1/launch_tmp/launcher_2020-10-25-12-32-42-086368
REM CASTEP 19.11| from code version Version unavailable
REM Functional Perdew Burke Ernzerhof Relativity Koelling-Harmon Dispersion off
REM Cut-off 340.0000 eV Grid scale 1.7500 Gmax 16.5316 1/A FBSC none
REM MP grid 4 2 2 Offset 0.000 0.000 0.000 No. kpts 6 Spacing 0.07
REM Total runtime: 4132.14 s
REM Overall efficiency: 77 %
REM
REM
REM
REM compiler GCC version 4.9.2
REM options -cpp -iprefix /scratch/UCL/applications/gcc/4.9.2/bin/../lib/gcc/x86_64-unknown-linux-gnu/4.9.2/ -mtune=corei7 -march=x86-64 -g -O2
REM COMMAND_LINE
REM seed -1182458937 -146300257 1152557048 -1686628133 -596830806 322586937 428614600 978531242 80050526 1131009150 -1472396613 818609221
REM
REM S 3|1.8|5|6|7|30:31:32(qc=5)
REM O 2|1.5|12|13|15|20:21(qc=5)
REM Li 1|1.3|8|9|10|10U:20(qc=5)
REM Fe 3|2.2|2.0|1.0|8|9|10|40:41:32(qc=5)
REM Fe d:4.0 
REM
CELL 1.54180    4.53567    9.01028    9.01028   90.08993   75.42224   75.42224
LATT -1
SFAC Li O  S  Fe 
Li     1  0.1872590000000  0.4690430000000 -0.3245390000000 1.0   0.00
Li     1  0.3317640000000 -0.4690430000000  0.3245390000000 1.0   0.00
Li     1 -0.1872590000000  0.3245390000000 -0.4690430000000 1.0   0.00
Li     1 -0.3317640000000 -0.3245390000000  0.4690430000000 1.0   0.00
Li     1  0.2390420000000 -0.0094750000000 -0.3703050000000 1.0   0.00
Li     1 -0.1407380000000  0.0094750000000  0.3703050000000 1.0   0.00
Li     1 -0.2390420000000  0.3703050000000  0.0094750000000 1.0   0.00
Li     1  0.1407380000000 -0.3703050000000 -0.0094750000000 1.0   0.00
Li     1  0.5000000000000 -0.1127010000000  0.1127010000000 1.0   0.00
Li     1  0.5000000000000  0.1127010000000 -0.1127010000000 1.0   0.00
O      2  0.1839440000000  0.0375110000000  0.2286320000000 1.0   0.37
O      2  0.4500870000000 -0.0375110000000 -0.2286320000000 1.0   0.37
O      2 -0.1839440000000 -0.2286320000000 -0.0375110000000 1.0   0.37
O      2 -0.4500870000000  0.2286320000000  0.0375110000000 1.0   0.37
S      3  0.3773060000000  0.2355760000000  0.4832990000000 1.0   0.11
S      3  0.0961810000000 -0.2355760000000 -0.4832990000000 1.0   0.11
S      3 -0.3773060000000 -0.4832990000000 -0.2355760000000 1.0   0.11
S      3 -0.0961810000000  0.4832990000000  0.2355760000000 1.0   0.11
Fe     4 -0.2771770000000 -0.2228230000000 -0.2228230000000 1.0   4.04
Fe     4  0.2771770000000  0.2228230000000  0.2228230000000 1.0   4.04
END
