TITL LFSO-LiFe3S4O-201028-184052-aecaf8 -0.1081 346.092387 -4.43765542E+003 10.5725 11.3625 9 (Cm) n - 1
REM
REM Run started: Thu, 29 Oct 2020 01:06:36 +0000 in /lustre/scratch/uccabz1/launch_tmp/launcher_2020-10-28-18-40-50-260154
REM CASTEP 20.1 from code version af48c487+ pr-geom-scf-spinfix Tue Jun 2 15:39:59 2020 +0100
REM Functional Perdew Burke Ernzerhof Relativity Koelling-Harmon Dispersion off
REM Cut-off 340.0000 eV Grid scale 1.7500 Gmax 16.5316 1/A FBSC none
REM MP grid 6 2 2 Offset 0.000 0.000 0.000 No. kpts 9 Spacing 0.07
REM Total runtime: 38455.8 s
REM Overall efficiency: 93.75 %
REM
REM
REM
REM compiler GCC version 4.9.2
REM options -cpp -iprefix /lustre/shared/ucl/apps/gcc/4.9.2/bin/../lib/gcc/x86_64-unknown-linux-gnu/4.9.2/ -mtune=corei7 -march=x86-64 -g -Og
REM COMMAND_LINE
REM seed 932185651 -152521477 565423616 -1222335018 -1670797366 -1961215540 -17392992 -13085973 574467453 1510470360 554421436 1760672482
REM
REM S 3|1.8|5|6|7|30:31:32(qc=5)
REM O 2|1.5|12|13|15|20:21(qc=5)
REM Li 1|1.3|8|9|10|10U:20(qc=5)
REM Fe 3|2.2|2.0|1.0|8|9|10|40:41:32(qc=5)
REM Fe d:4.0 
REM
CELL 1.54180    3.41619   15.36421   15.36421   33.67317   52.69933   52.69933
LATT -1
SFAC Li O  S  Fe 
Li     1 -0.3602250000000  0.1730810000000  0.1730810000000 1.0   0.01
O      2 -0.4610950000000  0.2437660000000  0.2437660000000 1.0   0.19
S      3  0.0976080000000 -0.3336940000000  0.0184870000000 1.0  -0.11
S      3  0.0976080000000  0.0184870000000 -0.3336940000000 1.0  -0.11
S      3  0.3824710000000 -0.0843800000000  0.4530850000000 1.0   0.02
S      3  0.3824710000000  0.4530850000000 -0.0843800000000 1.0   0.02
Fe     4 -0.4589410000000  0.0400540000000 -0.5417410000000 1.0   3.62
Fe     4 -0.4589410000000 -0.5417410000000  0.0400540000000 1.0   3.62
Fe     4 -0.3583640000000 -0.1659490000000 -0.1659490000000 1.0   3.33
END
