TITL LFSO-Li2Fe3S2O2-201022-160431-29f254 0.0584 176.511155 -4.46834108E+003 12.0000 12.1722 9 (R3) n - 1
REM
REM Run started: Thu, 22 Oct 2020 18:04:05 +0100 in /lustre/scratch/uccabz1/launch_tmp/launcher_2020-10-22-15-04-29-516481
REM CASTEP 20.1 from code version af48c487+ pr-geom-scf-spinfix Tue Jun 2 15:39:59 2020 +0100
REM Functional Perdew Burke Ernzerhof Relativity Koelling-Harmon Dispersion off
REM Cut-off 340.0000 eV Grid scale 1.7500 Gmax 16.5316 1/A FBSC none
REM MP grid 3 3 3 Offset 0.000 0.000 0.000 No. kpts 6 Spacing 0.07
REM Total runtime: 7921.83 s
REM Overall efficiency: 95.4286 %
REM
REM
REM
REM compiler GCC version 4.9.2
REM options -cpp -iprefix /lustre/shared/ucl/apps/gcc/4.9.2/bin/../lib/gcc/x86_64-unknown-linux-gnu/4.9.2/ -mtune=corei7 -march=x86-64 -g -Og
REM COMMAND_LINE
REM seed 223577241 -574568561 66126797 1630678459 913511995 -1877762421 1853294037 1061670721 -1581531674 1627750509 -1092187277 -1964464610
REM
REM S 3|1.8|5|6|7|30:31:32(qc=5)
REM O 2|1.5|12|13|15|20:21(qc=5)
REM Li 1|1.3|8|9|10|10U:20(qc=5)
REM Fe 3|2.2|2.0|1.0|8|9|10|40:41:32(qc=5)
REM Fe d:4.0 
REM
CELL 1.54180    5.99014    5.99014    6.65025   63.23260   63.23260   60.00000
LATT -1
SFAC Li O  S  Fe 
Li     1  0.3233560000000  0.3233560000000  0.0299320000000 1.0  -0.05
Li     1 -0.4005850000000 -0.4005850000000  0.2017550000000 1.0  -0.06
O      2  0.2109330000000  0.2109330000000 -0.6327990000000 1.0   0.13
O      2 -0.1026250000000 -0.1026250000000  0.3078750000000 1.0   0.29
S      3  0.4662260000000  0.4662260000000 -0.3986790000000 1.0   0.09
S      3 -0.2716540000000 -0.2716540000000 -0.1850360000000 1.0   0.13
Fe     4 -0.1033660000000  0.0892230000000  0.4915380000000 1.0   3.82
Fe     4  0.5226050000000 -0.1033660000000  0.4915380000000 1.0   3.82
Fe     4  0.0892230000000  0.5226050000000  0.4915380000000 1.0   3.82
END
