TITL LFSO-Li3FeS2O-201023-051534-bf98a8 0.0322 330.981929 -7.51806311E+003 9.02329 12.1025 21 (C222) n - 1
REM
REM Run started: Fri, 23 Oct 2020 07:13:24 +0100 in /lustre/scratch/uccabz1/launch_tmp/launcher_2020-10-23-04-15-32-552429
REM CASTEP 20.1 from code version af48c487+ pr-geom-scf-spinfix Tue Jun 2 15:39:59 2020 +0100
REM Functional Perdew Burke Ernzerhof Relativity Koelling-Harmon Dispersion off
REM Cut-off 340.0000 eV Grid scale 1.7500 Gmax 16.5316 1/A FBSC none
REM MP grid 3 3 2 Offset 0.000 0.000 0.000 No. kpts 4 Spacing 0.07
REM Total runtime: 7542.95 s
REM Overall efficiency: 80 %
REM
REM
REM
REM compiler GCC version 4.9.2
REM options -cpp -iprefix /lustre/shared/ucl/apps/gcc/4.9.2/bin/../lib/gcc/x86_64-unknown-linux-gnu/4.9.2/ -mtune=corei7 -march=x86-64 -g -Og
REM COMMAND_LINE
REM seed 766188082 -1733637248 -1175078538 -1788095661 -1983576208 -1171428907 -1725739364 -1145757788 -2099116687 1086612300 1073544881 -771241204
REM
REM S 3|1.8|5|6|7|30:31:32(qc=5)
REM O 2|1.5|12|13|15|20:21(qc=5)
REM Li 1|1.3|8|9|10|10U:20(qc=5)
REM Fe 3|2.2|2.0|1.0|8|9|10|40:41:32(qc=5)
REM Fe d:4.0 
REM
CELL 1.54180    6.93599    6.93599    7.80771   90.00000   90.00000  118.21532
LATT -1
SFAC Li O  S  Fe 
Li     1  0.2070760000000 -0.5577090000000 -0.5086230000000 1.0   0.02
Li     1 -0.2070760000000  0.5577090000000 -0.5086230000000 1.0   0.02
Li     1  0.5577090000000 -0.2070760000000  0.5086230000000 1.0   0.02
Li     1 -0.5577090000000  0.2070760000000  0.5086230000000 1.0   0.02
Li     1 -0.4777980000000 -0.2272180000000 -0.1113260000000 1.0  -0.02
Li     1  0.4777980000000  0.2272180000000 -0.1113260000000 1.0  -0.02
Li     1  0.2272180000000  0.4777980000000  0.1113260000000 1.0  -0.02
Li     1 -0.2272180000000 -0.4777980000000  0.1113260000000 1.0  -0.02
Li     1  0.0000000000000  0.0000000000000  0.5000000000000 1.0   0.00
O      2  0.0000000000000  0.5000000000000  0.0319190000000 1.0   0.12
O      2  0.5000000000000  0.0000000000000 -0.0319190000000 1.0   0.12
O      2 -0.5000000000000  0.5000000000000 -0.5000000000000 1.0  -0.59
S      3 -0.1883850000000 -0.2847390000000 -0.2112660000000 1.0  -0.19
S      3  0.1883850000000  0.2847390000000 -0.2112660000000 1.0  -0.19
S      3  0.2847390000000  0.1883850000000  0.2112660000000 1.0  -0.19
S      3 -0.2847390000000 -0.1883850000000  0.2112660000000 1.0  -0.19
S      3 -0.2098370000000  0.2098370000000  0.5000000000000 1.0  -0.21
S      3  0.2098370000000 -0.2098370000000  0.5000000000000 1.0  -0.21
Fe     4  0.0000000000000 -0.5000000000000 -0.1995940000000 1.0   3.48
Fe     4  0.5000000000000  0.0000000000000  0.1995940000000 1.0   3.48
Fe     4  0.0000000000000  0.0000000000000  0.0000000000000 1.0   3.61
END
