TITL LFSO-Li2Fe2S2O-201022-003012-54c436 0.0273 142.803850 -3.16704501E+003 5.99993 8.00462 7 (C2) n - 1
REM
REM Run started: Thu, 22 Oct 2020 01:25:31 +0100 in /scratch/scratch/uccabz1/launch_tmp/launcher_2020-10-21-23-30-09-921556
REM CASTEP 19.11| from code version Version unavailable
REM Functional Perdew Burke Ernzerhof Relativity Koelling-Harmon Dispersion off
REM Cut-off 340.0000 eV Grid scale 1.7500 Gmax 16.5316 1/A FBSC none
REM MP grid 4 4 2 Offset 0.000 0.000 0.000 No. kpts 10 Spacing 0.07
REM Total runtime: 3851.42 s
REM Overall efficiency: 70.625 %
REM
REM
REM
REM compiler GCC version 4.9.2
REM options -cpp -iprefix /scratch/UCL/applications/gcc/4.9.2/bin/../lib/gcc/x86_64-unknown-linux-gnu/4.9.2/ -mtune=corei7 -march=x86-64 -g -O2
REM COMMAND_LINE
REM seed 848345836 273575471 -1476185476 -55014081 -937111825 1197375317 1426218275 235132926 506614425 -205262709 485133307 -573859744
REM
REM S 3|1.8|5|6|7|30:31:32(qc=5)
REM O 2|1.5|12|13|15|20:21(qc=5)
REM Li 1|1.3|8|9|10|10U:20(qc=5)
REM Fe 3|2.2|2.0|1.0|8|9|10|40:41:32(qc=5)
REM Fe d:4.0 
REM
CELL 1.54180    3.80584    3.80584    9.86100   89.39146   89.39146   89.29195
LATT -1
SFAC Li O  S  Fe 
Li     1  0.1060240000000 -0.3422220000000 -0.3273380000000 1.0   0.05
Li     1  0.3422220000000 -0.1060240000000  0.3273380000000 1.0   0.05
O      2  0.2147260000000 -0.2147260000000 -0.5000000000000 1.0  -0.96
S      3 -0.2948120000000  0.2653780000000  0.1658980000000 1.0   0.15
S      3 -0.2653780000000  0.2948120000000 -0.1658980000000 1.0   0.15
Fe     4 -0.2767680000000 -0.2223280000000  0.0000310000000 1.0   3.27
Fe     4  0.2223280000000  0.2767680000000 -0.0000310000000 1.0   3.27
END
