TITL LFSO-Li4Fe2S3O-201027-004339-880182 0.7218 509.318185 -7.74409381E+003 15.9987 16.6523 20 (R3) n - 1
REM
REM Run started: Thu, 29 Oct 2020 01:24:19 +0000 in /lustre/scratch/uccabz1/launch_tmp/launcher_2020-10-28-23-29-12-228293
REM CASTEP 20.1 from code version af48c487+ pr-geom-scf-spinfix Tue Jun 2 15:39:59 2020 +0100
REM Functional Perdew Burke Ernzerhof Relativity Koelling-Harmon Dispersion off
REM Cut-off 340.0000 eV Grid scale 1.7500 Gmax 16.5316 1/A FBSC none
REM MP grid 3 3 3 Offset 0.000 0.000 0.000 No. kpts 6 Spacing 0.07
REM Total runtime: 110618 s
REM Overall efficiency: 88.3333 %
REM
REM
REM
REM compiler GCC version 4.9.2
REM options -cpp -iprefix /lustre/shared/ucl/apps/gcc/4.9.2/bin/../lib/gcc/x86_64-unknown-linux-gnu/4.9.2/ -mtune=corei7 -march=x86-64 -g -Og
REM COMMAND_LINE
REM seed -1050199252 580237432 897577146 61252590 -1087730318 137547270 691576634 -587408122 1098596749 -1478453512 1914979399 -1941422735
REM
REM S 3|1.8|5|6|7|30:31:32(qc=5)
REM O 2|1.5|12|13|15|20:21(qc=5)
REM Li 1|1.3|8|9|10|10U:20(qc=5)
REM Fe 3|2.2|2.0|1.0|8|9|10|40:41:32(qc=5)
REM Fe d:4.0 
REM
CELL 1.54180   12.24965   12.24965   12.24965   33.88958   33.88958   33.88958
LATT -1
SFAC Li O  S  Fe 
Li     1 -0.0973580000000 -0.3530460000000 -0.7487190000000 1.0  -0.01
Li     1 -0.7487190000000 -0.0973580000000 -0.3530460000000 1.0  -0.01
Li     1 -0.3530460000000 -0.7487190000000 -0.0973580000000 1.0  -0.01
Li     1 -0.3707010000000  0.0490700000000 -0.1524430000000 1.0  -0.03
Li     1 -0.1524430000000 -0.3707010000000  0.0490700000000 1.0  -0.03
Li     1  0.0490700000000 -0.1524430000000 -0.3707010000000 1.0  -0.03
Li     1 -0.5853720000000 -0.5853720000000 -0.5853720000000 1.0  -0.05
Li     1  0.3329290000000  0.3329290000000  0.3329290000000 1.0  -0.09
O      2 -0.1830240000000 -0.1830240000000 -0.1830240000000 1.0   0.04
O      2  0.0413550000000  0.0413550000000  0.0413550000000 1.0   0.23
S      3 -0.0686750000000  0.2219640000000  0.5595490000000 1.0   0.16
S      3  0.5595490000000 -0.0686750000000  0.2219640000000 1.0   0.16
S      3  0.2219640000000  0.5595490000000 -0.0686750000000 1.0   0.16
S      3  0.0647550000000 -0.3837560000000  0.4450930000000 1.0   0.15
S      3  0.4450930000000  0.0647550000000 -0.3837560000000 1.0   0.15
S      3 -0.3837560000000  0.4450930000000  0.0647550000000 1.0   0.15
Fe     4 -0.0023270000000 -0.6656790000000 -0.1998970000000 1.0   3.81
Fe     4 -0.1998970000000 -0.0023270000000 -0.6656790000000 1.0   3.81
Fe     4 -0.6656790000000 -0.1998970000000 -0.0023270000000 1.0   3.81
Fe     4  0.2343680000000  0.2343680000000  0.2343680000000 1.0   3.60
END
