TITL LFSO-Li2FeSO-201023-024340-855c79 -0.0307 285.182189 -6.01204801E+003 12.0000 12.2462 15 (R3) n - 1
REM
REM Run started: Fri, 23 Oct 2020 06:43:25 +0100 in /lustre/scratch/uccabz1/launch_tmp/launcher_2020-10-23-01-43-38-575259
REM CASTEP 20.1 from code version af48c487+ pr-geom-scf-spinfix Tue Jun 2 15:39:59 2020 +0100
REM Functional Perdew Burke Ernzerhof Relativity Koelling-Harmon Dispersion off
REM Cut-off 340.0000 eV Grid scale 1.7500 Gmax 16.5316 1/A FBSC none
REM MP grid 3 3 3 Offset 0.000 0.000 0.000 No. kpts 6 Spacing 0.07
REM Total runtime: 14966.9 s
REM Overall efficiency: 96.8182 %
REM
REM
REM
REM compiler GCC version 4.9.2
REM options -cpp -iprefix /lustre/shared/ucl/apps/gcc/4.9.2/bin/../lib/gcc/x86_64-unknown-linux-gnu/4.9.2/ -mtune=corei7 -march=x86-64 -g -Og
REM COMMAND_LINE
REM seed 545178755 1988039060 -971229632 1763079980 392809222 -1835160760 -1325149764 2005188121 -1602383962 1228199638 482323639 -779858998
REM
REM S 3|1.8|5|6|7|30:31:32(qc=5)
REM O 2|1.5|12|13|15|20:21(qc=5)
REM Li 1|1.3|8|9|10|10U:20(qc=5)
REM Fe 3|2.2|2.0|1.0|8|9|10|40:41:32(qc=5)
REM Fe d:4.0 
REM
CELL 1.54180    6.83935    6.83935    6.83935  104.04864  104.04864  104.04864
LATT -1
SFAC Li O  S  Fe 
Li     1 -0.0677090000000 -0.0132870000000 -0.2887020000000 1.0  -0.01
Li     1 -0.2887020000000 -0.0677090000000 -0.0132870000000 1.0  -0.01
Li     1 -0.0132870000000 -0.2887020000000 -0.0677090000000 1.0  -0.01
Li     1  0.3177170000000 -0.0939770000000 -0.3255810000000 1.0  -0.02
Li     1 -0.3255810000000  0.3177170000000 -0.0939770000000 1.0  -0.02
Li     1 -0.0939770000000 -0.3255810000000  0.3177170000000 1.0  -0.02
O      2 -0.3384810000000  0.0362000000000 -0.2589770000000 1.0   0.13
O      2 -0.2589770000000 -0.3384810000000  0.0362000000000 1.0   0.13
O      2  0.0362000000000 -0.2589770000000 -0.3384810000000 1.0   0.13
S      3  0.2482500000000  0.2778270000000 -0.2450380000000 1.0   0.12
S      3 -0.2450380000000  0.2482500000000  0.2778270000000 1.0   0.12
S      3  0.2778270000000 -0.2450380000000  0.2482500000000 1.0   0.12
Fe     4 -0.4177640000000  0.0444860000000  0.4548130000000 1.0   3.77
Fe     4  0.4548130000000 -0.4177640000000  0.0444860000000 1.0   3.77
Fe     4  0.0444860000000  0.4548130000000 -0.4177640000000 1.0   3.77
END
