TITL LFSO-Li2Fe2S2O-201022-010412-6f927d 0.0740 271.715421 -6.33479587E+003 14.0002 14.5462 14 (R3) n - 1
REM
REM Run started: Thu, 22 Oct 2020 07:57:46 +0100 in /lustre/scratch/uccabz1/launch_tmp/launcher_2020-10-22-00-04-10-685083
REM CASTEP 20.1 from code version af48c487+ pr-geom-scf-spinfix Tue Jun 2 15:39:59 2020 +0100
REM Functional Perdew Burke Ernzerhof Relativity Koelling-Harmon Dispersion off
REM Cut-off 340.0000 eV Grid scale 1.7500 Gmax 16.5316 1/A FBSC none
REM MP grid 3 3 3 Offset 0.000 0.000 0.000 No. kpts 6 Spacing 0.07
REM Total runtime: 27341.5 s
REM Overall efficiency: 97.1538 %
REM
REM
REM
REM compiler GCC version 4.9.2
REM options -cpp -iprefix /lustre/shared/ucl/apps/gcc/4.9.2/bin/../lib/gcc/x86_64-unknown-linux-gnu/4.9.2/ -mtune=corei7 -march=x86-64 -g -Og
REM COMMAND_LINE
REM seed 55443439 -1984261099 1192521549 -603937964 1990197291 -2001679072 1428242546 1617597592 -18773635 763576769 933651886 1564724433
REM
REM S 3|1.8|5|6|7|30:31:32(qc=5)
REM O 2|1.5|12|13|15|20:21(qc=5)
REM Li 1|1.3|8|9|10|10U:20(qc=5)
REM Fe 3|2.2|2.0|1.0|8|9|10|40:41:32(qc=5)
REM Fe d:4.0 
REM
CELL 1.54180    6.94380    6.94380    7.64296   62.98256   62.98256   60.00000
LATT -1
SFAC Li O  S  Fe 
Li     1  0.1284780000000  0.4929190000000  0.3490170000000 1.0  -0.05
Li     1  0.0295850000000  0.1284780000000  0.3490170000000 1.0  -0.05
Li     1  0.4929190000000  0.0295850000000  0.3490170000000 1.0  -0.05
Li     1 -0.3155760000000 -0.3155760000000 -0.0532730000000 1.0   0.01
O      2 -0.2251300000000 -0.2251300000000 -0.3246110000000 1.0   0.06
O      2  0.1589620000000  0.1589620000000 -0.4768850000000 1.0   0.07
S      3 -0.3343710000000  0.0262790000000 -0.0156010000000 1.0   0.12
S      3  0.3236930000000 -0.3343710000000 -0.0156010000000 1.0   0.12
S      3  0.0262790000000  0.3236930000000 -0.0156010000000 1.0   0.12
S      3 -0.1388450000000 -0.1388450000000  0.4165340000000 1.0   0.06
Fe     4  0.0538610000000 -0.1499780000000 -0.2267690000000 1.0   3.39
Fe     4  0.3228860000000  0.0538610000000 -0.2267690000000 1.0   3.39
Fe     4 -0.1499780000000  0.3228860000000 -0.2267690000000 1.0   3.39
Fe     4 -0.6366730000000 -0.6366730000000  0.9100190000000 1.0   3.43
END
