TITL LFSO-Li2Fe2S2O-201022-015203-0a1bcb 0.0093 469.223936 -9.50800026E+003 24.0000 24.3220 21 (R3) n - 1
REM
REM Run started: Thu, 22 Oct 2020 14:35:29 +0100 in /lustre/scratch/uccabz1/launch_tmp/launcher_2020-10-22-00-52-01-459893
REM CASTEP 20.1 from code version af48c487+ pr-geom-scf-spinfix Tue Jun 2 15:39:59 2020 +0100
REM Functional Perdew Burke Ernzerhof Relativity Koelling-Harmon Dispersion off
REM Cut-off 340.0000 eV Grid scale 1.7500 Gmax 16.5316 1/A FBSC none
REM MP grid 3 3 3 Offset 0.000 0.000 0.000 No. kpts 6 Spacing 0.07
REM Total runtime: 48081.3 s
REM Overall efficiency: 98.3 %
REM
REM
REM
REM compiler GCC version 4.9.2
REM options -cpp -iprefix /lustre/shared/ucl/apps/gcc/4.9.2/bin/../lib/gcc/x86_64-unknown-linux-gnu/4.9.2/ -mtune=corei7 -march=x86-64 -g -Og
REM COMMAND_LINE
REM seed 1889293033 2048142316 -239252742 -48306313 -1760502937 -324224140 871341208 620870685 1883148914 1422576998 -596903601 -454041747
REM
REM S 3|1.8|5|6|7|30:31:32(qc=5)
REM O 2|1.5|12|13|15|20:21(qc=5)
REM Li 1|1.3|8|9|10|10U:20(qc=5)
REM Fe 3|2.2|2.0|1.0|8|9|10|40:41:32(qc=5)
REM Fe d:4.0 
REM
CELL 1.54180    9.66745    9.66745    9.66745  115.75121  115.75121  115.75121
LATT -1
SFAC Li O  S  Fe 
Li     1 -0.2345910000000  0.5780680000000  0.2793940000000 1.0  -0.02
Li     1  0.5780680000000  0.2793940000000 -0.2345910000000 1.0  -0.02
Li     1  0.2793940000000 -0.2345910000000  0.5780680000000 1.0  -0.02
Li     1  0.4532460000000 -0.1926610000000  0.2341860000000 1.0  -0.05
Li     1 -0.1926610000000  0.2341860000000  0.4532460000000 1.0  -0.05
Li     1  0.2341860000000  0.4532460000000 -0.1926610000000 1.0  -0.05
O      2 -0.0638940000000  0.1265180000000 -0.4031340000000 1.0   0.18
O      2  0.1265180000000 -0.4031340000000 -0.0638940000000 1.0   0.18
O      2 -0.4031340000000 -0.0638940000000  0.1265180000000 1.0   0.18
S      3 -0.1428090000000 -0.3046810000000  0.1216360000000 1.0   0.06
S      3 -0.3046810000000  0.1216360000000 -0.1428090000000 1.0   0.06
S      3  0.1216360000000 -0.1428090000000 -0.3046810000000 1.0   0.06
S      3  0.4667650000000  0.5439190000000  0.1559550000000 1.0   0.14
S      3  0.5439190000000  0.1559550000000  0.4667650000000 1.0   0.14
S      3  0.1559550000000  0.4667650000000  0.5439190000000 1.0   0.14
Fe     4 -0.2148700000000 -0.1142130000000  0.2741950000000 1.0   3.89
Fe     4 -0.1142130000000  0.2741950000000 -0.2148700000000 1.0   3.89
Fe     4  0.2741950000000 -0.2148700000000 -0.1142130000000 1.0   3.89
Fe     4  0.1339590000000 -0.2024560000000  0.1370110000000 1.0   3.81
Fe     4 -0.2024560000000  0.1370110000000  0.1339590000000 1.0   3.81
Fe     4  0.1370110000000  0.1339590000000 -0.2024560000000 1.0   3.81
END
