TITL LFSO-Li5FeS2O2-201026-085538-af4113 0.2711 462.700685 -6.68918725E+003 8.00020 8.19520 20 (Pm) n - 1
REM
REM Run started: Mon, 26 Oct 2020 16:40:36 +0000 in /scratch/scratch/uccabz1/launch_tmp/launcher_2020-10-26-08-55-36-815628
REM CASTEP 19.11| from code version Version unavailable
REM Functional Perdew Burke Ernzerhof Relativity Koelling-Harmon Dispersion off
REM Cut-off 340.0000 eV Grid scale 1.7500 Gmax 16.5316 1/A FBSC none
REM MP grid 5 2 1 Offset 0.000 0.000 0.000 No. kpts 5 Spacing 0.07
REM Total runtime: 31226.5 s
REM Overall efficiency: 76 %
REM
REM
REM
REM compiler GCC version 4.9.2
REM options -cpp -iprefix /scratch/UCL/applications/gcc/4.9.2/bin/../lib/gcc/x86_64-unknown-linux-gnu/4.9.2/ -mtune=corei7 -march=x86-64 -g -O2
REM COMMAND_LINE
REM seed -480051373 -1308883617 -371753829 1803421474 -1259282840 1632870764 498228563 -851372491 189789978 -221280927 2057148896 782359399
REM
REM S 3|1.8|5|6|7|30:31:32(qc=5)
REM O 2|1.5|12|13|15|20:21(qc=5)
REM Li 1|1.3|8|9|10|10U:20(qc=5)
REM Fe 3|2.2|2.0|1.0|8|9|10|40:41:32(qc=5)
REM Fe d:4.0 
REM
CELL 1.54180    3.74006    9.70840   13.77025   90.00000   90.00000  112.27049
LATT -1
SFAC Li O  S  Fe 
Li     1  0.4254290000000  0.0503910000000 -0.2486630000000 1.0  -0.00
Li     1  0.4254290000000  0.0503910000000  0.2486630000000 1.0  -0.00
Li     1  0.1735970000000 -0.2779270000000  0.3296880000000 1.0  -0.03
Li     1  0.1735970000000 -0.2779270000000 -0.3296880000000 1.0  -0.03
Li     1  0.0909270000000  0.2252380000000 -0.2507450000000 1.0   0.01
Li     1  0.0909270000000  0.2252380000000  0.2507450000000 1.0   0.01
Li     1  0.6835440000000  0.3510330000000  0.3728360000000 1.0   0.00
Li     1  0.6835440000000  0.3510330000000 -0.3728360000000 1.0   0.00
Li     1 -0.1614140000000  0.4369600000000 -0.1843370000000 1.0  -0.03
Li     1 -0.1614140000000  0.4369600000000  0.1843370000000 1.0  -0.03
O      2 -0.9416300000000 -0.3662620000000  0.1559810000000 1.0   0.10
O      2 -0.9416300000000 -0.3662620000000 -0.1559810000000 1.0   0.10
O      2  0.6258570000000  0.2624320000000 -0.2489310000000 1.0   0.01
O      2  0.6258570000000  0.2624320000000  0.2489310000000 1.0   0.01
S      3  0.3249870000000 -0.4985270000000  0.4225440000000 1.0   0.00
S      3  0.3249870000000 -0.4985270000000 -0.4225440000000 1.0   0.00
S      3 -0.2052670000000 -0.0977980000000  0.2752480000000 1.0   0.10
S      3 -0.2052670000000 -0.0977980000000 -0.2752480000000 1.0   0.10
Fe     4 -0.3766090000000 -0.2941090000000 -0.1602590000000 1.0   3.84
Fe     4 -0.3766090000000 -0.2941090000000  0.1602590000000 1.0   3.84
END
