TITL LFSO-Li4Fe3S4O-201029-071026-fe7b49 0.0029 747.966547 -1.00773640E+004 24.0000 24.3572 24 (Pmc21) n - 1
REM
REM Run started: Thu, 29 Oct 2020 13:08:29 +0000 in /lustre/scratch/uccabz1/launch_tmp/launcher_2020-10-29-10-20-24-194167
REM CASTEP 20.1 from code version af48c487+ pr-geom-scf-spinfix Tue Jun 2 15:39:59 2020 +0100
REM Functional Perdew Burke Ernzerhof Relativity Koelling-Harmon Dispersion off
REM Cut-off 340.0000 eV Grid scale 1.7500 Gmax 16.5316 1/A FBSC none
REM MP grid 3 2 2 Offset 0.000 0.000 0.000 No. kpts 2 Spacing 0.07
REM Total runtime: 19740.6 s
REM Overall efficiency: 74.2143 %
REM
REM
REM
REM compiler GCC version 4.9.2
REM options -cpp -iprefix /scratch/UCL/applications/gcc/4.9.2/bin/../lib/gcc/x86_64-unknown-linux-gnu/4.9.2/ -mtune=corei7 -march=x86-64 -g -O2
REM COMMAND_LINE
REM seed -2144111070 -46015004 -590592630 -1713260130 -282678059 1714236642 129846763 1794927451 -51651282 -254533138 -858765042 406989276
REM
REM S 3|1.8|5|6|7|30:31:32(qc=5)
REM O 2|1.5|12|13|15|20:21(qc=5)
REM Li 1|1.3|8|9|10|10U:20(qc=5)
REM Fe 3|2.2|2.0|1.0|8|9|10|40:41:32(qc=5)
REM Fe d:4.0 
REM
CELL 1.54180    6.29933    8.48026   14.00162   90.00000   90.00000   90.00000
LATT -1
SFAC Li O  S  Fe 
Li     1  0.3522560000000  0.3822440000000 -0.2085220000000 1.0  -0.02
Li     1 -0.3522560000000 -0.1177560000000  0.2085220000000 1.0  -0.02
Li     1 -0.3522560000000 -0.1177560000000 -0.2085220000000 1.0  -0.02
Li     1  0.3522560000000  0.3822440000000  0.2085220000000 1.0  -0.02
Li     1 -0.2195930000000  0.2752330000000 -0.1228670000000 1.0  -0.03
Li     1  0.2195930000000 -0.2247670000000  0.1228670000000 1.0  -0.03
Li     1  0.2195930000000 -0.2247670000000 -0.1228670000000 1.0  -0.03
Li     1 -0.2195930000000  0.2752330000000  0.1228670000000 1.0  -0.03
O      2  0.2340630000000 -0.1556140000000  0.0000000000000 1.0   0.24
O      2 -0.2340630000000  0.3443860000000  0.0000000000000 1.0   0.24
S      3  0.4570630000000  0.1127410000000 -0.1631560000000 1.0   0.11
S      3 -0.4570630000000 -0.3872590000000  0.1631560000000 1.0   0.11
S      3 -0.4570630000000 -0.3872590000000 -0.1631560000000 1.0   0.11
S      3  0.4570630000000  0.1127410000000  0.1631560000000 1.0   0.11
S      3 -0.0041280000000 -0.1648720000000  0.2693010000000 1.0   0.14
S      3  0.0041280000000  0.3351280000000 -0.2693010000000 1.0   0.14
S      3  0.0041280000000  0.3351280000000  0.2693010000000 1.0   0.14
S      3 -0.0041280000000 -0.1648720000000 -0.2693010000000 1.0   0.14
Fe     4 -0.1332880000000 -0.4171180000000 -0.2440410000000 1.0   3.80
Fe     4  0.1332880000000  0.0828820000000  0.2440410000000 1.0   3.80
Fe     4  0.1332880000000  0.0828820000000 -0.2440410000000 1.0   3.80
Fe     4 -0.1332880000000 -0.4171180000000  0.2440410000000 1.0   3.80
Fe     4  0.3682130000000  0.0356860000000  0.0000000000000 1.0   3.77
Fe     4 -0.3682130000000 -0.4643140000000  0.0000000000000 1.0   3.77
END
