TITL LFSO-Li6FeSO3-201027-210231-97d9e4 0.0150 304.107757 -7.35436715E+003 7.78108 8.01966 22 (P2) n - 1
REM
REM Run started: Wed, 28 Oct 2020 01:13:49 +0000 in /scratch/scratch/uccabz1/launch_tmp/launcher_2020-10-27-21-02-29-603149
REM CASTEP 19.11| from code version Version unavailable
REM Functional Perdew Burke Ernzerhof Relativity Koelling-Harmon Dispersion off
REM Cut-off 340.0000 eV Grid scale 1.7500 Gmax 16.5316 1/A FBSC none
REM MP grid 5 3 1 Offset 0.000 0.000 0.000 No. kpts 6 Spacing 0.07
REM Total runtime: 15663.8 s
REM Overall efficiency: 69.8333 %
REM
REM
REM
REM compiler GCC version 4.9.2
REM options -cpp -iprefix /scratch/UCL/applications/gcc/4.9.2/bin/../lib/gcc/x86_64-unknown-linux-gnu/4.9.2/ -mtune=corei7 -march=x86-64 -g -O2
REM COMMAND_LINE
REM seed -887438904 -409321038 2017775336 -625724557 -1451004883 1665073710 -285806657 -1946021751 -2037488418 -1999240527 1819893494 -670724757
REM
REM S 3|1.8|5|6|7|30:31:32(qc=5)
REM O 2|1.5|12|13|15|20:21(qc=5)
REM Li 1|1.3|8|9|10|10U:20(qc=5)
REM Fe 3|2.2|2.0|1.0|8|9|10|40:41:32(qc=5)
REM Fe d:4.0 
REM
CELL 1.54180    3.66281    5.45921   18.58671   90.00000  125.09092   90.00000
LATT -1
SFAC Li O  S  Fe 
Li     1  0.0454860000000  0.1478010000000 -0.0989950000000 1.0  -0.07
Li     1 -0.0454860000000  0.1478010000000  0.0989950000000 1.0  -0.07
Li     1  0.1483200000000  0.0135220000000  0.2408790000000 1.0   0.04
Li     1 -0.1483200000000  0.0135220000000 -0.2408790000000 1.0   0.04
Li     1 -0.3908770000000  0.4487450000000 -0.3856350000000 1.0   0.00
Li     1  0.3908770000000  0.4487450000000  0.3856350000000 1.0   0.00
Li     1 -0.3529820000000  0.0175710000000  0.4258030000000 1.0  -0.00
Li     1  0.3529820000000  0.0175710000000 -0.4258030000000 1.0  -0.00
Li     1  0.1172910000000 -0.2133750000000 -0.3322080000000 1.0  -0.00
Li     1 -0.1172910000000 -0.2133750000000  0.3322080000000 1.0  -0.00
Li     1  0.1387720000000 -0.4453690000000  0.2296230000000 1.0  -0.06
Li     1 -0.1387720000000 -0.4453690000000 -0.2296230000000 1.0  -0.06
O      2  0.2849260000000  0.2002830000000  0.4516710000000 1.0   0.00
O      2 -0.2849260000000  0.2002830000000 -0.4516710000000 1.0   0.00
O      2 -0.4151070000000 -0.2349960000000 -0.3430040000000 1.0   0.00
O      2  0.4151070000000 -0.2349960000000  0.3430040000000 1.0   0.00
O      2  0.1052260000000 -0.1956180000000 -0.1326550000000 1.0   0.10
O      2 -0.1052260000000 -0.1956180000000  0.1326550000000 1.0   0.10
S      3 -0.3565210000000  0.2945720000000  0.2338490000000 1.0   0.02
S      3  0.3565210000000  0.2945720000000 -0.2338490000000 1.0   0.02
Fe     4  0.2754680000000 -0.3125060000000  0.0908150000000 1.0   3.85
Fe     4 -0.2754680000000 -0.3125060000000 -0.0908150000000 1.0   3.85
END
