TITL LFSO-Li4Fe2S3O-201026-100632-2a9a03 0.0890 361.623521 -7747.730842849 16.0000 16.2767 20 (P21) n - 1
REM
REM Run started: Mon, 26 Oct 2020 19:05:07 +0000 in /scratch/scratch/uccabz1/launch_tmp/launcher_2020-10-26-10-06-31-191554
REM CASTEP 19.11| from code version Version unavailable
REM Functional Perdew Burke Ernzerhof Relativity Koelling-Harmon Dispersion off
REM Cut-off 340.0000 eV Grid scale 1.7500 Gmax 16.5316 1/A FBSC none
REM MP grid 4 3 2 Offset 0.000 0.000 0.000 No. kpts 8 Spacing 0.07
REM Total runtime: 32303.9 s
REM Overall efficiency: 76.1667 %
REM
REM
REM
REM compiler GCC version 4.9.2
REM options -cpp -iprefix /scratch/UCL/applications/gcc/4.9.2/bin/../lib/gcc/x86_64-unknown-linux-gnu/4.9.2/ -mtune=corei7 -march=x86-64 -g -O2
REM COMMAND_LINE
REM seed 1996706198 -2118533923 -639758696 897505838 -208819290 1512683208 -344021271 1289972988 -936851030 -1209766088 698829023 -1458650682
REM
REM S 3|1.8|5|6|7|30:31:32(qc=5)
REM O 2|1.5|12|13|15|20:21(qc=5)
REM Li 1|1.3|8|9|10|10U:20(qc=5)
REM Fe 3|2.2|2.0|1.0|8|9|10|40:41:32(qc=5)
REM Fe d:4.0 
REM
CELL 1.54180    7.63619    5.99749   12.87339   90.00000  142.16694   90.00000
LATT -1
SFAC Li O  S  Fe 
Li     1  0.1312620000000 -0.5075150000000  0.1527800000000 1.0   0.00
Li     1 -0.1312620000000 -0.0075150000000 -0.1527800000000 1.0   0.00
Li     1 -0.1532160000000 -0.1109020000000 -0.3685560000000 1.0  -0.03
Li     1  0.1532160000000  0.3890980000000  0.3685560000000 1.0  -0.03
Li     1  0.1429000000000  0.0625920000000  0.2200650000000 1.0  -0.03
Li     1 -0.1429000000000 -0.4374080000000 -0.2200650000000 1.0  -0.03
Li     1  0.2763130000000  0.2637050000000 -0.3185290000000 1.0  -0.07
Li     1 -0.2763130000000 -0.2362950000000  0.3185290000000 1.0  -0.07
O      2 -0.3666650000000 -0.1932080000000 -0.3476220000000 1.0   0.15
O      2  0.3666650000000  0.3067920000000  0.3476220000000 1.0   0.15
S      3  0.0944600000000 -0.3454170000000 -0.3839430000000 1.0   0.06
S      3 -0.0944600000000  0.1545830000000  0.3839430000000 1.0   0.06
S      3  0.0731630000000  0.2399370000000 -0.2054760000000 1.0   0.13
S      3 -0.0731630000000 -0.2600630000000  0.2054760000000 1.0   0.13
S      3  0.2809120000000 -0.2671810000000  0.0415100000000 1.0   0.13
S      3 -0.2809120000000  0.2328190000000 -0.0415100000000 1.0   0.13
Fe     4 -0.5333450000000 -0.4725080000000 -0.0357020000000 1.0   3.80
Fe     4  0.5333450000000  0.0274920000000  0.0357020000000 1.0   3.80
Fe     4 -0.2558350000000  0.3508580000000  0.4838870000000 1.0   3.86
Fe     4  0.2558350000000 -0.1491420000000 -0.4838870000000 1.0   3.86
END
