TITL LFSO-Li4Fe2S3O-201026-120754-a6a7ed -0.0455 361.170451 -7.74723958E+003 16.0000 16.1635 20 (P21) n - 1
REM
REM Run started: Mon, 26 Oct 2020 22:44:28 +0000 in /scratch/scratch/uccabz1/launch_tmp/launcher_2020-10-26-12-07-53-238257
REM CASTEP 19.11| from code version Version unavailable
REM Functional Perdew Burke Ernzerhof Relativity Koelling-Harmon Dispersion off
REM Cut-off 340.0000 eV Grid scale 1.7500 Gmax 16.5316 1/A FBSC none
REM MP grid 3 3 2 Offset 0.000 0.000 0.000 No. kpts 5 Spacing 0.07
REM Total runtime: 40380.1 s
REM Overall efficiency: 74.3846 %
REM
REM
REM
REM compiler GCC version 4.9.2
REM options -cpp -iprefix /scratch/UCL/applications/gcc/4.9.2/bin/../lib/gcc/x86_64-unknown-linux-gnu/4.9.2/ -mtune=corei7 -march=x86-64 -g -O2
REM COMMAND_LINE
REM seed 10099547 935858353 1203267571 57403013 1711587171 -345305816 -1588728749 -433170914 1174960683 -1410636024 -900493048 -1428773811
REM
REM S 3|1.8|5|6|7|30:31:32(qc=5)
REM O 2|1.5|12|13|15|20:21(qc=5)
REM Li 1|1.3|8|9|10|10U:20(qc=5)
REM Fe 3|2.2|2.0|1.0|8|9|10|40:41:32(qc=5)
REM Fe d:4.0 
REM
CELL 1.54180    6.77984    6.10760   10.67006   90.00000   90.00000  125.17073
LATT -1
SFAC Li O  S  Fe 
Li     1  0.2881760000000 -0.5139800000000  0.5090080000000 1.0  -0.02
Li     1 -0.2881760000000  0.5139800000000  0.0090080000000 1.0  -0.02
Li     1  0.1939360000000  0.4971790000000 -0.2269870000000 1.0   0.01
Li     1 -0.1939360000000 -0.4971790000000  0.2730130000000 1.0   0.01
Li     1 -0.2385510000000 -0.1048170000000 -0.2879340000000 1.0  -0.03
Li     1  0.2385510000000  0.1048170000000  0.2120660000000 1.0  -0.03
Li     1 -0.1408110000000  0.0053620000000  0.1254290000000 1.0  -0.04
Li     1  0.1408110000000 -0.0053620000000  0.6254290000000 1.0  -0.04
O      2  0.0258020000000  0.2341580000000 -0.3683250000000 1.0   0.14
O      2 -0.0258020000000 -0.2341580000000  0.1316750000000 1.0   0.14
S      3  0.0674670000000  0.3195510000000  0.3088140000000 1.0   0.06
S      3 -0.0674670000000 -0.3195510000000 -0.1911860000000 1.0   0.06
S      3  0.2892410000000 -0.5863090000000 -0.0225310000000 1.0   0.10
S      3 -0.2892410000000  0.5863090000000 -0.5225310000000 1.0   0.10
S      3 -0.4547270000000  0.0837430000000  0.1078190000000 1.0   0.11
S      3  0.4547270000000 -0.0837430000000 -0.3921810000000 1.0   0.11
Fe     4 -0.2063980000000  0.0147800000000  0.4611990000000 1.0   3.85
Fe     4  0.2063980000000 -0.0147800000000 -0.0388010000000 1.0   3.85
Fe     4 -0.1968740000000  0.3618530000000 -0.3688390000000 1.0   3.83
Fe     4  0.1968740000000 -0.3618530000000  0.1311610000000 1.0   3.83
END
