TITL LFSO-Li2Fe3S3O-201025-102959-c3696b -0.0020 228.089038 -4.33595029E+003 12.0000 12.2409 9 (R3) n - 1
REM
REM Run started: Sun, 25 Oct 2020 11:39:36 +0000 in /scratch/scratch/uccabz1/launch_tmp/launcher_2020-10-25-10-29-57-393074
REM CASTEP 19.11| from code version Version unavailable
REM Functional Perdew Burke Ernzerhof Relativity Koelling-Harmon Dispersion off
REM Cut-off 340.0000 eV Grid scale 1.7500 Gmax 16.5316 1/A FBSC none
REM MP grid 3 3 3 Offset 0.000 0.000 0.000 No. kpts 6 Spacing 0.07
REM Total runtime: 4578.8 s
REM Overall efficiency: 75.1 %
REM
REM
REM
REM compiler GCC version 4.9.2
REM options -cpp -iprefix /scratch/UCL/applications/gcc/4.9.2/bin/../lib/gcc/x86_64-unknown-linux-gnu/4.9.2/ -mtune=corei7 -march=x86-64 -g -O2
REM COMMAND_LINE
REM seed 1071275907 1457160297 -1268234437 1536022349 1101868446 -1339671236 289786610 -1882889207 -1482690457 423528806 1351847755 1750741306
REM
REM S 3|1.8|5|6|7|30:31:32(qc=5)
REM O 2|1.5|12|13|15|20:21(qc=5)
REM Li 1|1.3|8|9|10|10U:20(qc=5)
REM Fe 3|2.2|2.0|1.0|8|9|10|40:41:32(qc=5)
REM Fe d:4.0 
REM
CELL 1.54180    6.97801    6.97801    6.97801   57.79422   57.79422   57.79422
LATT -1
SFAC Li O  S  Fe 
Li     1 -0.2724790000000 -0.2724790000000 -0.2724790000000 1.0  -0.04
Li     1  0.1130330000000  0.1130330000000  0.1130330000000 1.0  -0.03
O      2  0.2329670000000  0.2329670000000  0.2329670000000 1.0   0.20
S      3 -0.0457090000000  0.3330490000000 -0.2652670000000 1.0   0.14
S      3 -0.2652670000000 -0.0457090000000  0.3330490000000 1.0   0.14
S      3  0.3330490000000 -0.2652670000000 -0.0457090000000 1.0   0.14
Fe     4  0.2911340000000  0.0264510000000 -0.4412800000000 1.0   3.82
Fe     4 -0.4412800000000  0.2911340000000  0.0264510000000 1.0   3.82
Fe     4  0.0264510000000 -0.4412800000000  0.2911340000000 1.0   3.82
END
