TITL LFSO-Li6FeS3O-201027-200720-10a27e 0.1151 433.402009 -6.82055586E+003 8.00000 8.09742 22 (Pc) n - 1
REM
REM Run started: Wed, 28 Oct 2020 01:19:50 +0000 in /lustre/scratch/uccabz1/launch_tmp/launcher_2020-10-27-20-07-18-698416
REM CASTEP 20.1 from code version af48c487+ pr-geom-scf-spinfix Tue Jun 2 15:39:59 2020 +0100
REM Functional Perdew Burke Ernzerhof Relativity Koelling-Harmon Dispersion off
REM Cut-off 340.0000 eV Grid scale 1.7500 Gmax 16.5316 1/A FBSC none
REM MP grid 3 3 2 Offset 0.000 0.000 0.000 No. kpts 6 Spacing 0.07
REM Total runtime: 21834.5 s
REM Overall efficiency: 74.9167 %
REM
REM
REM
REM compiler GCC version 4.9.2
REM options -cpp -iprefix /lustre/shared/ucl/apps/gcc/4.9.2/bin/../lib/gcc/x86_64-unknown-linux-gnu/4.9.2/ -mtune=corei7 -march=x86-64 -g -Og
REM COMMAND_LINE
REM seed -522610826 -1932979268 207873571 859359133 -1767398630 1824018324 482425339 218513569 -1063282016 -923156734 -2001789701 2146868664
REM
REM S 3|1.8|5|6|7|30:31:32(qc=5)
REM O 2|1.5|12|13|15|20:21(qc=5)
REM Li 1|1.3|8|9|10|10U:20(qc=5)
REM Fe 3|2.2|2.0|1.0|8|9|10|40:41:32(qc=5)
REM Fe d:4.0 
REM
CELL 1.54180    6.76661    8.12132   11.15526  135.00949   90.00000   90.00000
LATT -1
SFAC Li O  S  Fe 
Li     1  0.2902900000000 -0.2273980000000  0.1157890000000 1.0  -0.01
Li     1 -0.2902900000000  0.2726020000000  0.1157890000000 1.0  -0.01
Li     1 -0.0947910000000 -0.3908330000000  0.5244550000000 1.0  -0.01
Li     1  0.0947910000000  0.1091670000000  0.5244550000000 1.0  -0.01
Li     1  0.4016640000000 -0.2644250000000 -0.3815820000000 1.0  -0.01
Li     1 -0.4016640000000  0.2355750000000 -0.3815820000000 1.0  -0.01
Li     1  0.7054300000000 -0.1675680000000  0.4257550000000 1.0  -0.00
Li     1 -0.7054300000000  0.3324320000000  0.4257550000000 1.0  -0.00
Li     1  0.2366590000000  0.5690980000000  0.3483100000000 1.0  -0.00
Li     1 -0.2366590000000  0.0690980000000  0.3483100000000 1.0  -0.00
Li     1  0.3735680000000  0.2952550000000 -0.0458000000000 1.0  -0.01
Li     1 -0.3735680000000 -0.2047450000000 -0.0458000000000 1.0  -0.01
O      2  0.1638350000000 -0.4054740000000 -0.4822610000000 1.0   0.00
O      2 -0.1638350000000  0.0945260000000 -0.4822610000000 1.0   0.00
S      3 -0.4756500000000  0.4849300000000 -0.0956390000000 1.0   0.08
S      3  0.4756500000000 -0.0150700000000 -0.0956390000000 1.0   0.08
S      3 -0.3909940000000  0.5162950000000  0.3858910000000 1.0   0.01
S      3  0.3909940000000  0.0162950000000  0.3858910000000 1.0   0.01
S      3  0.0349630000000  0.3506330000000  0.0486810000000 1.0   0.08
S      3 -0.0349630000000 -0.1493670000000  0.0486810000000 1.0   0.08
Fe     4  0.1398660000000 -0.0190040000000 -0.0565080000000 1.0   3.88
Fe     4 -0.1398660000000 -0.5190040000000 -0.0565080000000 1.0   3.88
END
