TITL LFSO-Li5FeSO3-201026-161759-1f4abb 0.0164 172.877569 -3.47621452E+003 4.78872 4.90766 10 (Amm2) n - 1
REM
REM Run started: Mon, 26 Oct 2020 16:57:47 +0000 in /lustre/scratch/uccabz1/launch_tmp/launcher_2020-10-26-16-17-57-983838
REM CASTEP 20.1 from code version af48c487+ pr-geom-scf-spinfix Tue Jun 2 15:39:59 2020 +0100
REM Functional Perdew Burke Ernzerhof Relativity Koelling-Harmon Dispersion off
REM Cut-off 340.0000 eV Grid scale 1.7500 Gmax 16.5316 1/A FBSC none
REM MP grid 4 6 2 Offset 0.000 0.000 0.000 No. kpts 12 Spacing 0.07
REM Total runtime: 2853.53 s
REM Overall efficiency: 73.75 %
REM
REM
REM
REM compiler GCC version 4.9.2
REM options -cpp -iprefix /lustre/shared/ucl/apps/gcc/4.9.2/bin/../lib/gcc/x86_64-unknown-linux-gnu/4.9.2/ -mtune=corei7 -march=x86-64 -g -Og
REM COMMAND_LINE
REM seed 2006639466 1631181393 270747596 2031369551 -1867107432 -658542943 -556786439 1947085843 -626098232 -298439499 -1684150435 1931508175
REM
REM S 3|1.8|5|6|7|30:31:32(qc=5)
REM O 2|1.5|12|13|15|20:21(qc=5)
REM Li 1|1.3|8|9|10|10U:20(qc=5)
REM Fe 3|2.2|2.0|1.0|8|9|10|40:41:32(qc=5)
REM Fe d:4.0 
REM
CELL 1.54180    5.13844    3.65152   12.96616   90.00000   90.00000  134.71671
LATT -1
SFAC Li O  S  Fe 
Li     1  0.2766730000000  0.0532310000000 -0.1729640000000 1.0  -0.01
Li     1 -0.2234420000000  0.0532310000000  0.1729640000000 1.0  -0.01
Li     1 -0.2234420000000  0.0532310000000 -0.1729640000000 1.0  -0.01
Li     1  0.2766730000000  0.0532310000000  0.1729640000000 1.0  -0.01
Li     1 -0.3777830000000  0.2444340000000  0.5000000000000 1.0  -0.06
O      2  0.2762300000000  0.5524600000000 -0.1676540000000 1.0   0.06
O      2  0.2762300000000  0.5524600000000  0.1676540000000 1.0   0.06
O      2  0.2572880000000 -0.4854240000000  0.5000000000000 1.0   0.94
S      3 -0.2249580000000  0.5500850000000  0.0000000000000 1.0   0.01
Fe     4  0.2753250000000 -0.4493490000000  0.0000000000000 1.0   3.82
END
