TITL LFSO-Li6FeSO3-201027-212151-8dd271 0.0065 279.163950 -7.35795139E+003 8.00000 8.17122 22 (C2) n - 1
REM
REM Run started: Wed, 28 Oct 2020 06:04:39 +0000 in /scratch/scratch/uccabz1/launch_tmp/launcher_2020-10-27-21-21-49-255027
REM CASTEP 19.11| from code version Version unavailable
REM Functional Perdew Burke Ernzerhof Relativity Koelling-Harmon Dispersion off
REM Cut-off 340.0000 eV Grid scale 1.7500 Gmax 16.5316 1/A FBSC none
REM MP grid 3 3 3 Offset 0.000 0.000 0.000 No. kpts 10 Spacing 0.07
REM Total runtime: 33082.9 s
REM Overall efficiency: 72.3846 %
REM
REM
REM
REM compiler GCC version 4.9.2
REM options -cpp -iprefix /scratch/UCL/applications/gcc/4.9.2/bin/../lib/gcc/x86_64-unknown-linux-gnu/4.9.2/ -mtune=corei7 -march=x86-64 -g -O2
REM COMMAND_LINE
REM seed -349110132 -732596910 705340607 -156000533 1929780858 1973074612 646437996 373538824 338912888 507448740 -67629998 1177963516
REM
REM S 3|1.8|5|6|7|30:31:32(qc=5)
REM O 2|1.5|12|13|15|20:21(qc=5)
REM Li 1|1.3|8|9|10|10U:20(qc=5)
REM Fe 3|2.2|2.0|1.0|8|9|10|40:41:32(qc=5)
REM Fe d:4.0 
REM
CELL 1.54180    6.34818    6.72229    6.72229   95.00577   81.69376   81.69376
LATT -1
SFAC Li O  S  Fe 
Li     1 -0.2515650000000  0.1510430000000 -0.1288280000000 1.0  -0.01
Li     1  0.2515650000000  0.1288280000000 -0.1510430000000 1.0  -0.01
Li     1 -0.0754260000000 -0.1523610000000 -0.0679100000000 1.0   0.01
Li     1  0.0754260000000  0.0679100000000  0.1523610000000 1.0   0.01
Li     1  0.4577690000000  0.2069180000000  0.1561790000000 1.0  -0.05
Li     1 -0.4577690000000 -0.1561790000000 -0.2069180000000 1.0  -0.05
Li     1 -0.1137730000000 -0.3466790000000 -0.4277500000000 1.0  -0.02
Li     1  0.1137730000000  0.4277500000000  0.3466790000000 1.0  -0.02
Li     1 -0.3152800000000 -0.1250290000000  0.3736730000000 1.0  -0.01
Li     1  0.3152800000000 -0.3736730000000  0.1250290000000 1.0  -0.01
Li     1  0.0925730000000 -0.0740880000000 -0.4301170000000 1.0  -0.00
Li     1 -0.0925730000000  0.4301170000000  0.0740880000000 1.0  -0.00
O      2  0.2050590000000 -0.3431840000000  0.4590150000000 1.0   0.13
O      2 -0.2050590000000 -0.4590150000000  0.3431840000000 1.0   0.13
O      2  0.2316120000000 -0.1643690000000 -0.0828500000000 1.0   0.08
O      2 -0.2316120000000  0.0828500000000  0.1643690000000 1.0   0.08
O      2 -0.1976250000000 -0.0754920000000 -0.3069400000000 1.0   0.01
O      2  0.1976250000000  0.3069400000000  0.0754920000000 1.0   0.01
S      3 -0.3420910000000 -0.5121200000000 -0.1674270000000 1.0   0.05
S      3  0.3420910000000  0.1674270000000  0.5121200000000 1.0   0.05
Fe     4  0.3199260000000  0.5746360000000 -0.3090200000000 1.0   3.80
Fe     4 -0.3199260000000  0.3090200000000 -0.5746360000000 1.0   3.80
END
