TITL LFSO-Li2Fe3S3O-201025-125122-274609 -0.1031 635.833682 -8.66518070E+003 22.1477 22.9642 18 (P3) n - 1
REM
REM Run started: Sun, 25 Oct 2020 20:37:04 +0000 in /scratch/scratch/uccabz1/launch_tmp/launcher_2020-10-25-12-51-20-719725
REM CASTEP 19.11| from code version Version unavailable
REM Functional Perdew Burke Ernzerhof Relativity Koelling-Harmon Dispersion off
REM Cut-off 340.0000 eV Grid scale 1.7500 Gmax 16.5316 1/A FBSC none
REM MP grid 3 3 2 Offset 0.000 0.000 0.000 No. kpts 5 Spacing 0.07
REM Total runtime: 34716.2 s
REM Overall efficiency: 76.25 %
REM
REM
REM
REM compiler GCC version 4.9.2
REM options -cpp -iprefix /scratch/UCL/applications/gcc/4.9.2/bin/../lib/gcc/x86_64-unknown-linux-gnu/4.9.2/ -mtune=corei7 -march=x86-64 -g -O2
REM COMMAND_LINE
REM seed -435260102 -391461190 -523662124 -772511051 994963328 624912664 -1557833310 1900904489 -1922783574 1168763436 -336643748 -1922735000
REM
REM S 3|1.8|5|6|7|30:31:32(qc=5)
REM O 2|1.5|12|13|15|20:21(qc=5)
REM Li 1|1.3|8|9|10|10U:20(qc=5)
REM Fe 3|2.2|2.0|1.0|8|9|10|40:41:32(qc=5)
REM Fe d:4.0 
REM
CELL 1.54180    7.65728    7.65728   12.52173   90.00000   90.00000  120.00000
LATT -1
SFAC Li O  S  Fe 
Li     1 -0.2660970000000 -0.1163160000000  0.4314450000000 1.0  -0.01
Li     1  0.1163160000000 -0.1497810000000  0.4314450000000 1.0  -0.01
Li     1  0.1497810000000  0.2660970000000  0.4314450000000 1.0  -0.01
Li     1 -0.3333330000000  0.3333330000000 -0.0154490000000 1.0  -0.02
O      2  0.0000000000000  0.0000000000000 -0.5438510000000 1.0   0.47
O      2  0.0000000000000  0.0000000000000 -0.0067800000000 1.0   0.14
S      3  0.0252700000000  0.4998430000000  0.3658880000000 1.0  -0.03
S      3 -0.4998430000000 -0.4745730000000  0.3658880000000 1.0  -0.03
S      3  0.4745730000000 -0.0252700000000  0.3658880000000 1.0  -0.03
S      3  0.4671740000000 -0.0060270000000  0.0163430000000 1.0   0.06
S      3  0.0060270000000  0.4732010000000  0.0163430000000 1.0   0.06
S      3 -0.4732010000000 -0.4671740000000  0.0163430000000 1.0   0.06
Fe     4  0.0943990000000  0.5253410000000  0.1969640000000 1.0   3.38
Fe     4 -0.5253410000000 -0.4309430000000  0.1969640000000 1.0   3.38
Fe     4  0.4309430000000 -0.0943990000000  0.1969640000000 1.0   3.38
Fe     4  0.1824020000000  0.2925970000000 -0.0015250000000 1.0   3.78
Fe     4 -0.2925970000000 -0.1101950000000 -0.0015250000000 1.0   3.78
Fe     4  0.1101950000000 -0.1824020000000 -0.0015250000000 1.0   3.78
END
