TITL LFSO-Li4Fe3S3O2-201029-024534-78f5ac 0.2580 454.569478 -1.03479318E+004 -24.0000 24.3523 24 (P-1) n - 1
REM
REM Run started: Fri, 30 Oct 2020 06:50:14 +0000 in /lustre/scratch/uccabz1/launch_tmp/launcher_2020-10-29-02-45-33-057998
REM CASTEP 20.1 from code version af48c487+ pr-geom-scf-spinfix Tue Jun 2 15:39:59 2020 +0100
REM Functional Perdew Burke Ernzerhof Relativity Koelling-Harmon Dispersion off
REM Cut-off 340.0000 eV Grid scale 1.7500 Gmax 16.5316 1/A FBSC none
REM MP grid 3 2 2 Offset 0.000 0.000 0.000 No. kpts 6 Spacing 0.07
REM Total runtime: 110892 s
REM Overall efficiency: 96 %
REM
REM
REM
REM compiler GCC version 4.9.2
REM options -cpp -iprefix /lustre/shared/ucl/apps/gcc/4.9.2/bin/../lib/gcc/x86_64-unknown-linux-gnu/4.9.2/ -mtune=corei7 -march=x86-64 -g -Og
REM COMMAND_LINE
REM seed 1380286883 -718396955 -798471600 -80700019 1733805418 -1717384459 576043649 38886215 1063812378 2063696238 59086497 181873873
REM
REM S 3|1.8|5|6|7|30:31:32(qc=5)
REM O 2|1.5|12|13|15|20:21(qc=5)
REM Li 1|1.3|8|9|10|10U:20(qc=5)
REM Fe 3|2.2|2.0|1.0|8|9|10|40:41:32(qc=5)
REM Fe d:4.0 
REM
CELL 1.54180    7.01070    9.09401   11.86690   61.79237   43.27283   73.64273
LATT -1
SFAC Li O  S  Fe 
Li     1  0.1691570000000 -0.3724850000000 -0.0288810000000 1.0   0.01
Li     1 -0.1691570000000  0.3724850000000  0.0288810000000 1.0   0.01
Li     1 -0.3847020000000 -0.1655890000000  0.4862970000000 1.0   0.03
Li     1  0.3847020000000  0.1655890000000 -0.4862970000000 1.0   0.03
Li     1  0.3995830000000  0.3706250000000  0.0595910000000 1.0   0.04
Li     1 -0.3995830000000 -0.3706250000000 -0.0595910000000 1.0   0.04
Li     1 -0.6761370000000  0.5127360000000 -0.3545890000000 1.0   0.02
Li     1  0.6761370000000 -0.5127360000000  0.3545890000000 1.0   0.02
O      2  0.3727780000000  0.3252480000000 -0.4134750000000 1.0  -0.17
O      2 -0.3727780000000 -0.3252480000000  0.4134750000000 1.0  -0.17
O      2  0.2069670000000 -0.4512140000000  0.1276870000000 1.0  -0.13
O      2 -0.2069670000000  0.4512140000000 -0.1276870000000 1.0  -0.13
S      3 -0.1178720000000  0.1291410000000 -0.3120290000000 1.0  -0.10
S      3  0.1178720000000 -0.1291410000000  0.3120290000000 1.0  -0.10
S      3 -0.3917550000000  0.0850750000000  0.2664820000000 1.0  -0.16
S      3  0.3917550000000 -0.0850750000000 -0.2664820000000 1.0  -0.16
S      3  0.3054100000000  0.3471870000000 -0.1049340000000 1.0  -0.15
S      3 -0.3054100000000 -0.3471870000000  0.1049340000000 1.0  -0.15
Fe     4 -0.0469080000000  0.3219980000000 -0.2597000000000 1.0  -3.81
Fe     4  0.0469080000000 -0.3219980000000  0.2597000000000 1.0  -3.81
Fe     4  0.0654520000000  0.0920870000000  0.1324140000000 1.0  -3.72
Fe     4 -0.0654520000000 -0.0920870000000 -0.1324140000000 1.0  -3.72
Fe     4  0.4798740000000  0.1713270000000 -0.2802270000000 1.0  -3.86
Fe     4 -0.4798740000000 -0.1713270000000  0.2802270000000 1.0  -3.86
END
