TITL LFSO-Li4Fe3S4O-201029-060926-0d7051 0.2080 1086.650613 -10075.81345881 8.00842 24.2414 24 (P2/m) n - 1
REM
REM Run started: Fri, 30 Oct 2020 06:52:50 +0000 in /lustre/scratch/uccabz1/launch_tmp/launcher_2020-10-29-06-09-24-658042
REM CASTEP 20.1 from code version af48c487+ pr-geom-scf-spinfix Tue Jun 2 15:39:59 2020 +0100
REM Functional Perdew Burke Ernzerhof Relativity Koelling-Harmon Dispersion off
REM Cut-off 340.0000 eV Grid scale 1.7500 Gmax 16.5316 1/A FBSC none
REM MP grid 3 3 2 Offset 0.000 0.000 0.000 No. kpts 5 Spacing 0.07
REM Total runtime: 88993.1 s
REM Overall efficiency: 72.5455 %
REM
REM
REM
REM compiler GCC version 4.9.2
REM options -cpp -iprefix /lustre/shared/ucl/apps/gcc/4.9.2/bin/../lib/gcc/x86_64-unknown-linux-gnu/4.9.2/ -mtune=corei7 -march=x86-64 -g -Og
REM COMMAND_LINE
REM seed 762924551 -1238527980 -1090671755 572496851 441480241 2017949974 1035931279 -1899322177 -2082249580 805576437 1804929590 825014001
REM
REM S 3|1.8|5|6|7|30:31:32(qc=5)
REM O 2|1.5|12|13|15|20:21(qc=5)
REM Li 1|1.3|8|9|10|10U:20(qc=5)
REM Fe 3|2.2|2.0|1.0|8|9|10|40:41:32(qc=5)
REM Fe d:4.0 
REM
CELL 1.54180   14.82669   14.70675   10.88574   90.00000   90.00000  152.75507
LATT -1
SFAC Li O  S  Fe 
Li     1  0.1999030000000 -0.3487440000000  0.3332520000000 1.0   0.02
Li     1 -0.1999030000000  0.3487440000000  0.3332520000000 1.0   0.02
Li     1 -0.1999030000000  0.3487440000000 -0.3332520000000 1.0   0.02
Li     1  0.1999030000000 -0.3487440000000 -0.3332520000000 1.0   0.02
Li     1 -0.1036040000000  0.5476210000000  0.1164250000000 1.0  -0.01
Li     1  0.1036040000000 -0.5476210000000  0.1164250000000 1.0  -0.01
Li     1  0.1036040000000 -0.5476210000000 -0.1164250000000 1.0  -0.01
Li     1 -0.1036040000000  0.5476210000000 -0.1164250000000 1.0  -0.01
O      2  0.1000060000000 -0.2743700000000 -0.0000000000000 1.0   0.12
O      2 -0.1000060000000  0.2743700000000  0.0000000000000 1.0   0.12
S      3 -0.6155290000000 -0.2148650000000  0.1719190000000 1.0   0.08
S      3  0.6155290000000  0.2148650000000  0.1719190000000 1.0   0.08
S      3  0.6155290000000  0.2148650000000 -0.1719190000000 1.0   0.08
S      3 -0.6155290000000 -0.2148650000000 -0.1719190000000 1.0   0.08
S      3  0.0731460000000 -0.3022700000000 -0.3169670000000 1.0  -0.05
S      3 -0.0731460000000  0.3022700000000 -0.3169670000000 1.0  -0.05
S      3 -0.0731460000000  0.3022700000000  0.3169670000000 1.0  -0.05
S      3  0.0731460000000 -0.3022700000000  0.3169670000000 1.0  -0.05
Fe     4 -0.2943720000000  0.1224330000000 -0.1310750000000 1.0   3.77
Fe     4  0.2943720000000 -0.1224330000000 -0.1310750000000 1.0   3.77
Fe     4  0.2943720000000 -0.1224330000000  0.1310750000000 1.0   3.77
Fe     4 -0.2943720000000  0.1224330000000  0.1310750000000 1.0   3.77
Fe     4 -0.1044090000000  0.2139840000000 -0.5000000000000 1.0  -3.74
Fe     4  0.1044090000000 -0.2139840000000  0.5000000000000 1.0  -3.74
END
