TITL LFSO-Li4Fe3S3O2-201029-232850-4d127e 0.0272 214.780387 -5.17353476E+003 11.9994 12.2163 12 (C2) n - 1
REM
REM Run started: Fri, 30 Oct 2020 03:47:16 +0000 in /scratch/scratch/uccabz1/launch_tmp/launcher_2020-10-29-23-28-47-863407
REM CASTEP 19.11| from code version Version unavailable
REM Functional Perdew Burke Ernzerhof Relativity Koelling-Harmon Dispersion off
REM Cut-off 340.0000 eV Grid scale 1.7500 Gmax 16.5316 1/A FBSC none
REM MP grid 4 2 2 Offset 0.000 0.000 0.000 No. kpts 6 Spacing 0.07
REM Total runtime: 16845.2 s
REM Overall efficiency: 96.9167 %
REM
REM
REM
REM compiler GCC version 4.9.2
REM options -cpp -iprefix /scratch/UCL/applications/gcc/4.9.2/bin/../lib/gcc/x86_64-unknown-linux-gnu/4.9.2/ -mtune=corei7 -march=x86-64 -g -O2
REM COMMAND_LINE
REM seed 805177634 -821350665 -1662926398 -288361862 1280178190 1554618047 1218595143 -1399365436 1297546950 276038621 -807696396 1541233004
REM
REM S 3|1.8|5|6|7|30:31:32(qc=5)
REM O 2|1.5|12|13|15|20:21(qc=5)
REM Li 1|1.3|8|9|10|10U:20(qc=5)
REM Fe 3|2.2|2.0|1.0|8|9|10|40:41:32(qc=5)
REM Fe d:4.0 
REM
CELL 1.54180    3.76993    7.59594    7.59594   91.82655   83.80899   83.80899
LATT -1
SFAC Li O  S  Fe 
Li     1 -0.2228670000000  0.4391980000000  0.4127220000000 1.0  -0.06
Li     1  0.2228670000000 -0.4127220000000 -0.4391980000000 1.0  -0.06
Li     1 -0.3963850000000 -0.1870180000000 -0.2137930000000 1.0  -0.03
Li     1  0.3963850000000  0.2137930000000  0.1870180000000 1.0  -0.03
O      2 -0.7012290000000  0.3627880000000  0.4061580000000 1.0   0.15
O      2  0.7012290000000 -0.4061580000000 -0.3627880000000 1.0   0.15
S      3  0.4292920000000 -0.0712480000000  0.3765120000000 1.0   0.15
S      3 -0.4292920000000 -0.3765120000000  0.0712480000000 1.0   0.15
S      3  0.0000000000000  0.1393730000000 -0.1393730000000 1.0   0.07
Fe     4  0.2934840000000  0.1826800000000 -0.4267960000000 1.0   3.80
Fe     4 -0.2934840000000  0.4267960000000 -0.1826800000000 1.0   3.80
Fe     4  0.0000000000000 -0.2190400000000  0.2190400000000 1.0   3.90
END
