TITL LFSO-Li5FeSO3-201026-182548-a5e49d 0.3337 403.022121 -6.95535697E+003 -9.99996 10.0642 20 (R3) n - 1
REM
REM Run started: Wed, 28 Oct 2020 17:26:51 +0000 in /lustre/scratch/uccabz1/launch_tmp/launcher_2020-10-28-16-42-31-241459
REM CASTEP 20.1 from code version af48c487+ pr-geom-scf-spinfix Tue Jun 2 15:39:59 2020 +0100
REM Functional Perdew Burke Ernzerhof Relativity Koelling-Harmon Dispersion off
REM Cut-off 340.0000 eV Grid scale 1.7500 Gmax 16.5316 1/A FBSC none
REM MP grid 3 3 3 Offset 0.000 0.000 0.000 No. kpts 6 Spacing 0.07
REM Total runtime: 112031 s
REM Overall efficiency: 70.7273 %
REM
REM
REM
REM compiler GCC version 4.9.2
REM options -cpp -iprefix /lustre/shared/ucl/apps/gcc/4.9.2/bin/../lib/gcc/x86_64-unknown-linux-gnu/4.9.2/ -mtune=corei7 -march=x86-64 -g -Og
REM COMMAND_LINE
REM seed -119250483 -2012899680 1699036224 -1724361442 1248806111 -414577277 -1514988082 1532382214 -527032588 1055450204 -919102809 1401527240
REM
REM S 3|1.8|5|6|7|30:31:32(qc=5)
REM O 2|1.5|12|13|15|20:21(qc=5)
REM Li 1|1.3|8|9|10|10U:20(qc=5)
REM Fe 3|2.2|2.0|1.0|8|9|10|40:41:32(qc=5)
REM Fe d:4.0 
REM
CELL 1.54180   14.26752   14.26752   14.26752   23.42410   23.42410   23.42410
LATT -1
SFAC Li O  S  Fe 
Li     1 -0.1240730000000  0.0774830000000 -0.5220990000000 1.0   0.00
Li     1  0.0774830000000 -0.5220990000000 -0.1240730000000 1.0   0.00
Li     1 -0.5220990000000 -0.1240730000000  0.0774830000000 1.0   0.00
Li     1 -0.1717380000000  0.4014430000000 -0.0087810000000 1.0   0.02
Li     1  0.4014430000000 -0.0087810000000 -0.1717380000000 1.0   0.02
Li     1 -0.0087810000000 -0.1717380000000  0.4014430000000 1.0   0.02
Li     1 -0.0403730000000 -0.7077480000000 -0.2858770000000 1.0   0.00
Li     1 -0.7077480000000 -0.2858770000000 -0.0403730000000 1.0   0.00
Li     1 -0.2858770000000 -0.0403730000000 -0.7077480000000 1.0   0.00
Li     1 -0.4965080000000 -0.4965080000000 -0.4965080000000 1.0  -0.02
O      2  0.2020920000000 -0.2450420000000 -0.5295510000000 1.0  -0.22
O      2 -0.2450420000000 -0.5295510000000  0.2020920000000 1.0  -0.22
O      2 -0.5295510000000  0.2020920000000 -0.2450420000000 1.0  -0.22
O      2  0.4529770000000 -0.3515570000000  0.1215760000000 1.0  -0.37
O      2 -0.3515570000000  0.1215760000000  0.4529770000000 1.0  -0.37
O      2  0.1215760000000  0.4529770000000 -0.3515570000000 1.0  -0.37
S      3  0.3163130000000  0.3163130000000  0.3163130000000 1.0  -0.02
S      3  0.0222880000000  0.0222880000000  0.0222880000000 1.0  -0.04
Fe     4  0.3800930000000  0.3800930000000  0.3800930000000 1.0  -4.09
Fe     4  0.4462560000000  0.4462560000000  0.4462560000000 1.0  -4.14
END
