TITL LFSO-Li3FeS2O-201025-053912-6306fc -0.0155 157.493285 -2.50469631E+003 4.99994 5.09684 7 (R3m) n - 1
REM
REM Run started: Sun, 25 Oct 2020 06:23:40 +0000 in /scratch/scratch/uccabz1/launch_tmp/launcher_2020-10-25-05-39-10-527579
REM CASTEP 19.11| from code version Version unavailable
REM Functional Perdew Burke Ernzerhof Relativity Koelling-Harmon Dispersion off
REM Cut-off 340.0000 eV Grid scale 1.7500 Gmax 16.5316 1/A FBSC none
REM MP grid 3 3 3 Offset 0.000 0.000 0.000 No. kpts 6 Spacing 0.07
REM Total runtime: 2841.49 s
REM Overall efficiency: 92.5714 %
REM
REM
REM
REM compiler GCC version 4.9.2
REM options -cpp -iprefix /scratch/UCL/applications/gcc/4.9.2/bin/../lib/gcc/x86_64-unknown-linux-gnu/4.9.2/ -mtune=corei7 -march=x86-64 -g -O2
REM COMMAND_LINE
REM seed -585825187 903206143 1053397985 -1538511794 -398713323 1935160422 -30587296 -928049092 -2101000853 -1184750810 -1624151451 558797670
REM
REM S 3|1.8|5|6|7|30:31:32(qc=5)
REM O 2|1.5|12|13|15|20:21(qc=5)
REM Li 1|1.3|8|9|10|10U:20(qc=5)
REM Fe 3|2.2|2.0|1.0|8|9|10|40:41:32(qc=5)
REM Fe d:4.0 
REM
CELL 1.54180    5.42794    5.42794    5.42794   84.03720   84.03720   84.03720
LATT -1
SFAC Li O  S  Fe 
Li     1  0.4497260000000 -0.1198610000000 -0.1196060000000 1.0  -0.04
Li     1 -0.1196060000000  0.4497260000000 -0.1198610000000 1.0  -0.04
Li     1 -0.1198610000000 -0.1196060000000  0.4497260000000 1.0  -0.04
O      2 -0.2541910000000 -0.2541910000000 -0.2541910000000 1.0   0.69
S      3  0.0874820000000  0.0874820000000  0.0874820000000 1.0   0.11
S      3 -0.4896080000000 -0.4896080000000 -0.4896080000000 1.0   0.40
Fe     4  0.3019210000000  0.3019210000000  0.3019210000000 1.0   3.94
END
