TITL LFSO-Li6FeS3O-201027-195320-984ace 0.0228 387.719328 -6.82186627E+003 8.00000 8.23207 22 (R3) n - 1
REM
REM Run started: Tue, 27 Oct 2020 22:37:35 +0000 in /scratch/scratch/uccabz1/launch_tmp/launcher_2020-10-27-19-53-18-271166
REM CASTEP 19.11| from code version Version unavailable
REM Functional Perdew Burke Ernzerhof Relativity Koelling-Harmon Dispersion off
REM Cut-off 340.0000 eV Grid scale 1.7500 Gmax 16.5316 1/A FBSC none
REM MP grid 2 2 2 Offset 0.000 0.000 0.000 No. kpts 2 Spacing 0.07
REM Total runtime: 9979.34 s
REM Overall efficiency: 83.5556 %
REM
REM
REM
REM compiler GCC version 4.9.2
REM options -cpp -iprefix /scratch/UCL/applications/gcc/4.9.2/bin/../lib/gcc/x86_64-unknown-linux-gnu/4.9.2/ -mtune=corei7 -march=x86-64 -g -O2
REM COMMAND_LINE
REM seed 2046715727 -1360493781 -475728869 1986683326 -642544227 -88740817 -949384505 1748874667 1112068638 -2012301288 -59233831 1070813120
REM
REM S 3|1.8|5|6|7|30:31:32(qc=5)
REM O 2|1.5|12|13|15|20:21(qc=5)
REM Li 1|1.3|8|9|10|10U:20(qc=5)
REM Fe 3|2.2|2.0|1.0|8|9|10|40:41:32(qc=5)
REM Fe d:4.0 
REM
CELL 1.54180    7.32722    7.32722    7.32722   95.43383   95.43383   95.43383
LATT -1
SFAC Li O  S  Fe 
Li     1 -0.0641090000000 -0.5377770000000 -0.3125970000000 1.0  -0.01
Li     1 -0.5377770000000 -0.3125970000000 -0.0641090000000 1.0  -0.01
Li     1 -0.3125970000000 -0.0641090000000 -0.5377770000000 1.0  -0.01
Li     1  0.3125290000000  0.4610100000000  0.1147250000000 1.0  -0.02
Li     1  0.4610100000000  0.1147250000000  0.3125290000000 1.0  -0.02
Li     1  0.1147250000000  0.3125290000000  0.4610100000000 1.0  -0.02
Li     1 -0.2373600000000  0.1810880000000  0.0357560000000 1.0  -0.04
Li     1  0.1810880000000  0.0357560000000 -0.2373600000000 1.0  -0.04
Li     1  0.0357560000000 -0.2373600000000  0.1810880000000 1.0  -0.04
Li     1  0.2908690000000 -0.3108870000000 -0.4382610000000 1.0   0.00
Li     1 -0.3108870000000 -0.4382610000000  0.2908690000000 1.0   0.00
Li     1 -0.4382610000000  0.2908690000000 -0.3108870000000 1.0   0.00
O      2 -0.0234020000000 -0.0234020000000 -0.0234020000000 1.0   0.19
O      2  0.2875570000000  0.2875570000000  0.2875570000000 1.0   0.15
S      3 -0.0421110000000 -0.2340610000000  0.5217450000000 1.0   0.06
S      3 -0.2340610000000  0.5217450000000 -0.0421110000000 1.0   0.06
S      3  0.5217450000000 -0.0421110000000 -0.2340610000000 1.0   0.06
S      3 -0.2348910000000  0.2571080000000  0.4066890000000 1.0   0.01
S      3  0.2571080000000  0.4066890000000 -0.2348910000000 1.0   0.01
S      3  0.4066890000000 -0.2348910000000  0.2571080000000 1.0   0.01
Fe     4 -0.2137540000000 -0.2137540000000 -0.2137540000000 1.0   3.86
Fe     4  0.1318580000000  0.1318580000000  0.1318580000000 1.0   3.80
END
