TITL LFSO-Li2FeSO-201025-042007-35ae86 -0.4244 631.964235 -8.01646543E+003 16.0000 16.3606 20 (P212121) n - 1
REM
REM Run started: Sun, 25 Oct 2020 10:53:09 +0000 in /lustre/scratch/uccabz1/launch_tmp/launcher_2020-10-25-04-20-05-181143
REM CASTEP 20.1 from code version af48c487+ pr-geom-scf-spinfix Tue Jun 2 15:39:59 2020 +0100
REM Functional Perdew Burke Ernzerhof Relativity Koelling-Harmon Dispersion off
REM Cut-off 340.0000 eV Grid scale 1.7500 Gmax 16.5316 1/A FBSC none
REM MP grid 4 3 1 Offset 0.000 0.000 0.000 No. kpts 4 Spacing 0.07
REM Total runtime: 25756.6 s
REM Overall efficiency: 81.3846 %
REM
REM
REM
REM compiler GCC version 4.9.2
REM options -cpp -iprefix /lustre/shared/ucl/apps/gcc/4.9.2/bin/../lib/gcc/x86_64-unknown-linux-gnu/4.9.2/ -mtune=corei7 -march=x86-64 -g -Og
REM COMMAND_LINE
REM seed 1462029795 -1242903959 -2039945381 821244201 -1122403903 -707399727 -685403188 502291230 1762114998 -2132081400 1826188440 -142573704
REM
REM S 3|1.8|5|6|7|30:31:32(qc=5)
REM O 2|1.5|12|13|15|20:21(qc=5)
REM Li 1|1.3|8|9|10|10U:20(qc=5)
REM Fe 3|2.2|2.0|1.0|8|9|10|40:41:32(qc=5)
REM Fe d:4.0 
REM
CELL 1.54180    3.62867    5.99063   29.07185   90.00000   90.00000   90.00000
LATT -1
SFAC Li O  S  Fe 
Li     1 -0.1254190000000 -0.3277030000000 -0.1448350000000 1.0  -0.02
Li     1 -0.3745810000000  0.3277030000000  0.3551650000000 1.0  -0.02
Li     1  0.1254190000000  0.1722970000000 -0.3551650000000 1.0  -0.02
Li     1  0.3745810000000 -0.1722970000000  0.1448350000000 1.0  -0.02
Li     1  0.3733090000000 -0.4203360000000 -0.2148810000000 1.0  -0.02
Li     1  0.1266910000000  0.4203360000000  0.2851190000000 1.0  -0.02
Li     1 -0.3733090000000  0.0796640000000 -0.2851190000000 1.0  -0.02
Li     1 -0.1266910000000 -0.0796640000000  0.2148810000000 1.0  -0.02
O      2 -0.3756710000000  0.2732970000000 -0.3384450000000 1.0   0.15
O      2 -0.1243290000000 -0.2732970000000  0.1615550000000 1.0   0.15
O      2  0.3756710000000 -0.2267030000000 -0.1615550000000 1.0   0.15
O      2  0.1243290000000  0.2267030000000  0.3384450000000 1.0   0.15
S      3 -0.6304800000000  0.1900360000000  0.1965840000000 1.0   0.11
S      3  0.1304800000000 -0.1900360000000 -0.3034160000000 1.0   0.11
S      3  0.6304800000000 -0.3099640000000  0.3034160000000 1.0   0.11
S      3 -0.1304800000000  0.3099640000000 -0.1965840000000 1.0   0.11
Fe     4 -0.3729050000000  0.5783470000000 -0.3272180000000 1.0   3.78
Fe     4 -0.1270950000000 -0.5783470000000  0.1727820000000 1.0   3.78
Fe     4  0.3729050000000  0.0783470000000 -0.1727820000000 1.0   3.78
Fe     4  0.1270950000000 -0.0783470000000  0.3272180000000 1.0   3.78
END
