TITL LFSO-Li2Fe2S2O-201021-224512-7779a9 -0.1730 385.760653 -9503.288947825 15.8031 18.3725 21 (Pm) n - 1
REM
REM Run started: Fri, 23 Oct 2020 00:37:45 +0100 in /lustre/scratch/uccabz1/launch_tmp/launcher_2020-10-22-23-05-33-331556
REM CASTEP 20.1 from code version af48c487+ pr-geom-scf-spinfix Tue Jun 2 15:39:59 2020 +0100
REM Functional Perdew Burke Ernzerhof Relativity Koelling-Harmon Dispersion off
REM Cut-off 340.0000 eV Grid scale 1.7500 Gmax 16.5316 1/A FBSC none
REM MP grid 5 2 2 Offset 0.000 0.000 0.000 No. kpts 5 Spacing 0.07
REM Total runtime: 88701.9 s
REM Overall efficiency: 67 %
REM
REM
REM
REM compiler GCC version 4.9.2
REM options -cpp -iprefix /lustre/shared/ucl/apps/gcc/4.9.2/bin/../lib/gcc/x86_64-unknown-linux-gnu/4.9.2/ -mtune=corei7 -march=x86-64 -g -Og
REM COMMAND_LINE
REM seed 915333296 1696379474 1178964949 -1207140199 1045050045 -1402469078 1355200958 -694364124 1775635165 -1387517870 -1421368716 1335661659
REM
REM S 3|1.8|5|6|7|30:31:32(qc=5)
REM O 2|1.5|12|13|15|20:21(qc=5)
REM Li 1|1.3|8|9|10|10U:20(qc=5)
REM Fe 3|2.2|2.0|1.0|8|9|10|40:41:32(qc=5)
REM Fe d:4.0 
REM
CELL 1.54180    3.52236    9.62771   11.57199   90.00000   90.00000  100.58058
LATT -1
SFAC Li O  S  Fe 
Li     1 -0.2263030000000  0.3908310000000  0.3893580000000 1.0  -0.01
Li     1 -0.2263030000000  0.3908310000000 -0.3893580000000 1.0  -0.01
Li     1 -0.2284870000000 -0.0140820000000  0.1214500000000 1.0  -0.07
Li     1 -0.2284870000000 -0.0140820000000 -0.1214500000000 1.0  -0.07
Li     1 -0.5206220000000 -0.3849150000000 -0.3935240000000 1.0  -0.03
Li     1 -0.5206220000000 -0.3849150000000  0.3935240000000 1.0  -0.03
O      2 -0.1526580000000  0.1811700000000  0.1458340000000 1.0   0.15
O      2 -0.1526580000000  0.1811700000000 -0.1458340000000 1.0   0.15
O      2 -0.2282050000000 -0.4619090000000  0.5000000000000 1.0   0.01
S      3  0.2973530000000  0.1677840000000 -0.4061220000000 1.0  -0.15
S      3  0.2973530000000  0.1677840000000  0.4061220000000 1.0  -0.15
S      3  0.2023060000000 -0.1127870000000 -0.2346070000000 1.0  -0.07
S      3  0.2023060000000 -0.1127870000000  0.2346070000000 1.0  -0.07
S      3 -0.4869910000000 -0.4871020000000 -0.2030490000000 1.0   0.11
S      3 -0.4869910000000 -0.4871020000000  0.2030490000000 1.0   0.11
Fe     4  0.0789200000000 -0.3416990000000 -0.1402270000000 1.0   3.64
Fe     4  0.0789200000000 -0.3416990000000  0.1402270000000 1.0   3.64
Fe     4  0.3880600000000  0.2636650000000 -0.1550230000000 1.0   3.84
Fe     4  0.3880600000000  0.2636650000000  0.1550230000000 1.0   3.84
Fe     4 -0.2704010000000  0.0274150000000 -0.3237910000000 1.0   2.92
Fe     4 -0.2704010000000  0.0274150000000  0.3237910000000 1.0   2.92
END
