TITL LFSO-Li4Fe3S3O2-201029-044658-15a8c6 -0.0301 280.708182 -5.17197562E+003 12.0000 12.1992 12 (R3) n - 1
REM
REM Run started: Thu, 29 Oct 2020 10:29:16 +0000 in /lustre/scratch/uccabz1/launch_tmp/launcher_2020-10-29-04-46-57-328163
REM CASTEP 20.1 from code version af48c487+ pr-geom-scf-spinfix Tue Jun 2 15:39:59 2020 +0100
REM Functional Perdew Burke Ernzerhof Relativity Koelling-Harmon Dispersion off
REM Cut-off 340.0000 eV Grid scale 1.7500 Gmax 16.5316 1/A FBSC none
REM MP grid 3 3 3 Offset 0.000 0.000 0.000 No. kpts 6 Spacing 0.07
REM Total runtime: 21300.7 s
REM Overall efficiency: 97.1667 %
REM
REM
REM
REM compiler GCC version 4.9.2
REM options -cpp -iprefix /lustre/shared/ucl/apps/gcc/4.9.2/bin/../lib/gcc/x86_64-unknown-linux-gnu/4.9.2/ -mtune=corei7 -march=x86-64 -g -Og
REM COMMAND_LINE
REM seed -830500967 543982933 -717238168 -607591691 -775193887 1521208608 -217749720 1821232844 1944720024 1333339174 -487567679 118885073
REM
REM S 3|1.8|5|6|7|30:31:32(qc=5)
REM O 2|1.5|12|13|15|20:21(qc=5)
REM Li 1|1.3|8|9|10|10U:20(qc=5)
REM Fe 3|2.2|2.0|1.0|8|9|10|40:41:32(qc=5)
REM Fe d:4.0 
REM
CELL 1.54180    7.92134    7.92134    7.92134   51.45017   51.45017   51.45017
LATT -1
SFAC Li O  S  Fe 
Li     1 -0.0523000000000 -0.5172510000000 -0.2958530000000 1.0  -0.05
Li     1 -0.5172510000000 -0.2958530000000 -0.0523000000000 1.0  -0.05
Li     1 -0.2958530000000 -0.0523000000000 -0.5172510000000 1.0  -0.05
Li     1 -0.1610110000000 -0.1610110000000 -0.1610110000000 1.0  -0.03
O      2  0.3262610000000  0.3262610000000  0.3262610000000 1.0   0.29
O      2 -0.2500010000000 -0.2500010000000 -0.2500010000000 1.0   0.02
S      3 -0.3476740000000 -0.1346970000000  0.2568270000000 1.0   0.17
S      3 -0.1346970000000  0.2568270000000 -0.3476740000000 1.0   0.17
S      3  0.2568270000000 -0.3476740000000 -0.1346970000000 1.0   0.17
Fe     4  0.2765920000000  0.0190560000000 -0.4582960000000 1.0   3.79
Fe     4  0.0190560000000 -0.4582960000000  0.2765920000000 1.0   3.79
Fe     4 -0.4582960000000  0.2765920000000  0.0190560000000 1.0   3.79
END
