TITL LFSO-Li2Fe4S4O-201024-184929-b7ef93 0.1055 734.039470 -1.09966215E+004 27.9996 28.9305 22 (Pm) n - 1
REM
REM Run started: Sun, 25 Oct 2020 22:44:05 +0000 in /lustre/scratch/uccabz1/launch_tmp/launcher_2020-10-24-17-49-26-759164
REM CASTEP 20.1 from code version af48c487+ pr-geom-scf-spinfix Tue Jun 2 15:39:59 2020 +0100
REM Functional Perdew Burke Ernzerhof Relativity Koelling-Harmon Dispersion off
REM Cut-off 340.0000 eV Grid scale 1.7500 Gmax 16.5316 1/A FBSC none
REM MP grid 2 3 2 Offset 0.000 0.000 0.000 No. kpts 3 Spacing 0.07
REM Total runtime: 110913 s
REM Overall efficiency: 86.4167 %
REM
REM
REM
REM compiler GCC version 4.9.2
REM options -cpp -iprefix /lustre/shared/ucl/apps/gcc/4.9.2/bin/../lib/gcc/x86_64-unknown-linux-gnu/4.9.2/ -mtune=corei7 -march=x86-64 -g -Og
REM COMMAND_LINE
REM seed 1974290795 700624166 -2137379243 -2037917804 -2023942529 -193163635 1412246400 -2091342574 1953964048 -574273342 -590903509 1227689742
REM
REM S 3|1.8|5|6|7|30:31:32(qc=5)
REM O 2|1.5|12|13|15|20:21(qc=5)
REM Li 1|1.3|8|9|10|10U:20(qc=5)
REM Fe 3|2.2|2.0|1.0|8|9|10|40:41:32(qc=5)
REM Fe d:4.0 
REM
CELL 1.54180   11.27718    6.05681   11.77998   65.82293   90.00000   90.00000
LATT -1
SFAC Li O  S  Fe 
Li     1  0.2223850000000  0.3296720000000 -0.2090950000000 1.0  -0.04
Li     1 -0.2223850000000  0.3296720000000 -0.2090950000000 1.0  -0.04
Li     1 -0.2226130000000  0.3320380000000  0.3916580000000 1.0  -0.06
Li     1  0.2226130000000  0.3320380000000  0.3916580000000 1.0  -0.06
O      2  0.1829000000000  0.1204050000000 -0.0508890000000 1.0   0.14
O      2 -0.1829000000000  0.1204050000000 -0.0508890000000 1.0   0.14
S      3 -0.2217690000000  0.0730830000000 -0.3400410000000 1.0   0.05
S      3  0.2217690000000  0.0730830000000 -0.3400410000000 1.0   0.05
S      3  0.2142280000000 -0.5107960000000  0.1683380000000 1.0   0.04
S      3 -0.2142280000000 -0.5107960000000  0.1683380000000 1.0   0.04
S      3 -0.2149780000000 -0.2947100000000  0.4154570000000 1.0   0.07
S      3  0.2149780000000 -0.2947100000000  0.4154570000000 1.0   0.07
S      3  0.2817320000000 -0.2725040000000 -0.2026950000000 1.0   0.06
S      3 -0.2817320000000 -0.2725040000000 -0.2026950000000 1.0   0.06
Fe     4 -0.1681700000000 -0.1704410000000  0.2138020000000 1.0   3.46
Fe     4  0.1681700000000 -0.1704410000000  0.2138020000000 1.0   3.46
Fe     4 -0.2223080000000 -0.1946260000000 -0.0337760000000 1.0   3.69
Fe     4  0.2223080000000 -0.1946260000000 -0.0337760000000 1.0   3.69
Fe     4  0.1667390000000 -0.1395960000000  0.5508260000000 1.0   3.30
Fe     4 -0.1667390000000 -0.1395960000000  0.5508260000000 1.0   3.30
Fe     4 -0.1679560000000  0.2815760000000  0.0529120000000 1.0   3.27
Fe     4  0.1679560000000  0.2815760000000  0.0529120000000 1.0   3.27
END
