TITL LFSO-Li4Fe3S4O-201029-011742-3da30b 0.1149 482.624292 -1.00758757E+004 20.0000 20.7938 24 (Cc) n - 1
REM
REM Run started: Thu, 29 Oct 2020 22:09:56 +0000 in /scratch/scratch/uccabz1/launch_tmp/launcher_2020-10-29-01-17-40-426652
REM CASTEP 19.11| from code version Version unavailable
REM Functional Perdew Burke Ernzerhof Relativity Koelling-Harmon Dispersion off
REM Cut-off 340.0000 eV Grid scale 1.7500 Gmax 16.5316 1/A FBSC none
REM MP grid 4 4 2 Offset 0.000 0.000 0.000 No. kpts 10 Spacing 0.07
REM Total runtime: 84210.8 s
REM Overall efficiency: 71.6667 %
REM
REM
REM
REM compiler GCC version 4.9.2
REM options -cpp -iprefix /scratch/UCL/applications/gcc/4.9.2/bin/../lib/gcc/x86_64-unknown-linux-gnu/4.9.2/ -mtune=corei7 -march=x86-64 -g -O2
REM COMMAND_LINE
REM seed 1815367501 -249247427 134318866 529212970 -1612482475 -1851227512 967686592 -300553826 100010896 -1718938355 -1594509421 -1674787144
REM
REM S 3|1.8|5|6|7|30:31:32(qc=5)
REM O 2|1.5|12|13|15|20:21(qc=5)
REM Li 1|1.3|8|9|10|10U:20(qc=5)
REM Fe 3|2.2|2.0|1.0|8|9|10|40:41:32(qc=5)
REM Fe d:4.0 
REM
CELL 1.54180    8.72596    8.72596   14.08894  115.74559  115.74559  119.10913
LATT -1
SFAC Li O  S  Fe 
Li     1  0.7596680000000 -0.2279310000000 -0.0896470000000 1.0  -0.02
Li     1  0.2720690000000  0.2596680000000  0.4103530000000 1.0  -0.02
Li     1 -0.0327190000000  0.3026870000000  0.1978530000000 1.0  -0.12
Li     1 -0.1973130000000  0.4672810000000 -0.3021470000000 1.0  -0.12
Li     1  0.3620950000000 -0.2946280000000 -0.4026480000000 1.0   0.01
Li     1  0.2053720000000 -0.1379050000000  0.0973520000000 1.0   0.01
Li     1 -0.0548000000000  0.0598140000000 -0.2065470000000 1.0  -0.04
Li     1 -0.4401860000000 -0.5548000000000  0.2934530000000 1.0  -0.04
O      2  0.1819470000000  0.0317150000000  0.0420350000000 1.0   0.00
O      2 -0.4682850000000 -0.3180530000000 -0.4579650000000 1.0   0.00
S      3 -0.1784900000000 -0.2850960000000  0.0754540000000 1.0   0.02
S      3  0.2149040000000  0.3215100000000 -0.4245460000000 1.0   0.02
S      3  0.1042440000000 -0.4865940000000 -0.1246850000000 1.0  -0.00
S      3  0.0134060000000 -0.3957560000000  0.3753150000000 1.0  -0.00
S      3  0.1902890000000 -0.0019230000000 -0.0845420000000 1.0   0.05
S      3 -0.5019230000000  0.6902890000000  0.4154580000000 1.0   0.05
S      3  0.5924200000000  0.1909060000000  0.4167500000000 1.0   0.11
S      3 -0.3090940000000  0.0924200000000 -0.0832500000000 1.0   0.11
Fe     4  0.1508310000000 -0.0088100000000 -0.4970780000000 1.0   3.18
Fe     4 -0.5088100000000 -0.3491690000000  0.0029220000000 1.0   3.18
Fe     4  0.3663990000000 -0.1550330000000 -0.1039920000000 1.0   3.28
Fe     4  0.3449670000000 -0.1336010000000  0.3960080000000 1.0   3.28
Fe     4 -0.3327300000000  0.3582750000000  0.0431030000000 1.0   3.53
Fe     4 -0.1417250000000  0.1672700000000  0.5431030000000 1.0   3.53
END
