TITL LFSO-Li4Fe2S3O-201027-022905-677b5a 0.0022 710.960097 -7.74075361E+003 -13.9932 14.6249 20 (C2) n - 1
REM
REM Run started: Wed, 28 Oct 2020 05:55:17 +0000 in /lustre/scratch/uccabz1/launch_tmp/launcher_2020-10-27-02-29-03-117112
REM CASTEP 20.1 from code version af48c487+ pr-geom-scf-spinfix Tue Jun 2 15:39:59 2020 +0100
REM Functional Perdew Burke Ernzerhof Relativity Koelling-Harmon Dispersion off
REM Cut-off 340.0000 eV Grid scale 1.7500 Gmax 16.5316 1/A FBSC none
REM MP grid 3 2 2 Offset 0.000 0.000 0.000 No. kpts 5 Spacing 0.07
REM Total runtime: 81034.6 s
REM Overall efficiency: 84.4615 %
REM
REM
REM
REM compiler GCC version 4.9.2
REM options -cpp -iprefix /lustre/shared/ucl/apps/gcc/4.9.2/bin/../lib/gcc/x86_64-unknown-linux-gnu/4.9.2/ -mtune=corei7 -march=x86-64 -g -Og
REM COMMAND_LINE
REM seed -1837990292 530853428 -356400977 1394589632 -1835115463 1830949363 685345836 1649507025 -814420046 -1087466501 1596272663 1955557396
REM
REM S 3|1.8|5|6|7|30:31:32(qc=5)
REM O 2|1.5|12|13|15|20:21(qc=5)
REM Li 1|1.3|8|9|10|10U:20(qc=5)
REM Fe 3|2.2|2.0|1.0|8|9|10|40:41:32(qc=5)
REM Fe d:4.0 
REM
CELL 1.54180    8.22285    8.60585   11.92892   82.19145   73.47799   61.46164
LATT -1
SFAC Li O  S  Fe 
Li     1 -0.4807600000000  0.3112260000000  0.4585220000000 1.0   0.11
Li     1  0.1695340000000  0.3112260000000 -0.4585220000000 1.0   0.11
Li     1 -0.4019490000000  0.3330010000000  0.1160280000000 1.0   0.01
Li     1  0.0689480000000  0.3330010000000 -0.1160280000000 1.0   0.01
Li     1  0.3680470000000 -0.1715000000000  0.4903400000000 1.0  -0.06
Li     1 -0.1965470000000 -0.1715000000000 -0.4903400000000 1.0  -0.06
Li     1 -0.5337770000000  0.3522680000000 -0.0424470000000 1.0   0.03
Li     1  0.1815090000000  0.3522680000000  0.0424470000000 1.0   0.03
O      2  0.2821470000000  0.3589540000000 -0.1200110000000 1.0  -0.17
O      2  0.3588990000000  0.3589540000000  0.1200110000000 1.0  -0.17
S      3 -0.0838540000000  0.2653560000000  0.0756350000000 1.0  -0.01
S      3 -0.1815020000000  0.2653560000000 -0.0756350000000 1.0  -0.01
S      3  0.2846610000000  0.0959660000000  0.3939710000000 1.0  -0.07
S      3 -0.3806280000000  0.0959660000000 -0.3939710000000 1.0  -0.07
S      3  0.4502120000000 -0.4475020000000 -0.4242060000000 1.0  -0.06
S      3 -0.0027100000000 -0.4475020000000  0.4242060000000 1.0  -0.06
Fe     4 -0.2679660000000  0.3029630000000 -0.3996780000000 1.0  -3.13
Fe     4 -0.0349970000000  0.3029630000000  0.3996780000000 1.0  -3.13
Fe     4  0.2524010000000  0.3554160000000  0.2774160000000 1.0  -3.65
Fe     4  0.3921820000000  0.3554160000000 -0.2774160000000 1.0  -3.65
END
