TITL LFSO-Li2FeSO-201025-151428-dcb27e 0.0336 160.931588 -4.00301283E+003 8.00990 8.26457 10 (R3) n - 1
REM
REM Run started: Sun, 25 Oct 2020 15:46:38 +0000 in /scratch/scratch/uccabz1/launch_tmp/launcher_2020-10-25-15-14-26-992631
REM CASTEP 19.11| from code version Version unavailable
REM Functional Perdew Burke Ernzerhof Relativity Koelling-Harmon Dispersion off
REM Cut-off 340.0000 eV Grid scale 1.7500 Gmax 16.5316 1/A FBSC none
REM MP grid 4 4 3 Offset 0.000 0.000 0.000 No. kpts 24 Spacing 0.07
REM Total runtime: 1958.1 s
REM Overall efficiency: 76.3333 %
REM
REM
REM
REM compiler GCC version 4.9.2
REM options -cpp -iprefix /scratch/UCL/applications/gcc/4.9.2/bin/../lib/gcc/x86_64-unknown-linux-gnu/4.9.2/ -mtune=corei7 -march=x86-64 -g -O2
REM COMMAND_LINE
REM seed 1755989014 -1258504245 704112515 -443349515 708276650 -360249923 -1141114324 -1228570690 1504593065 -1792264347 2123210587 2078048370
REM
REM S 3|1.8|5|6|7|30:31:32(qc=5)
REM O 2|1.5|12|13|15|20:21(qc=5)
REM Li 1|1.3|8|9|10|10U:20(qc=5)
REM Fe 3|2.2|2.0|1.0|8|9|10|40:41:32(qc=5)
REM Fe d:4.0 
REM
CELL 1.54180    5.48611    5.48611    6.93926   66.71564   66.71564   60.00000
LATT -1
SFAC Li O  S  Fe 
Li     1  0.4957500000000  0.0990690000000 -0.5721890000000 1.0  -0.01
Li     1  0.0990690000000 -0.0226300000000 -0.5721890000000 1.0  -0.01
Li     1 -0.0226300000000  0.4957500000000 -0.5721890000000 1.0  -0.01
Li     1 -0.4027300000000 -0.4027300000000  0.2081900000000 1.0  -0.13
O      2  0.2522160000000  0.2522160000000  0.2433530000000 1.0   0.13
O      2 -0.1566740000000 -0.1566740000000  0.4700220000000 1.0   0.10
S      3  0.0450870000000  0.0450870000000 -0.1352620000000 1.0   0.06
S      3  0.4747140000000  0.4747140000000 -0.4241420000000 1.0   0.12
Fe     4  0.3525960000000  0.3525960000000 -0.0577870000000 1.0   3.86
Fe     4 -0.2584780000000 -0.2584780000000 -0.2245650000000 1.0   3.89
END
