TITL LFSO-Li2Fe3S3O-201026-151324-f618b4 -0.0119 405.876895 -8.66898001E+003 8.00000 23.1041 18 (Cmc21) n - 1
REM
REM Run started: Mon, 26 Oct 2020 18:43:32 +0000 in /scratch/scratch/uccabz1/launch_tmp/launcher_2020-10-26-15-13-23-110421
REM CASTEP 19.11| from code version Version unavailable
REM Functional Perdew Burke Ernzerhof Relativity Koelling-Harmon Dispersion off
REM Cut-off 340.0000 eV Grid scale 1.7500 Gmax 16.5316 1/A FBSC none
REM MP grid 3 2 2 Offset 0.000 0.000 0.000 No. kpts 3 Spacing 0.07
REM Total runtime: 13196.5 s
REM Overall efficiency: 77.8462 %
REM
REM
REM
REM compiler GCC version 4.9.2
REM options -cpp -iprefix /scratch/UCL/applications/gcc/4.9.2/bin/../lib/gcc/x86_64-unknown-linux-gnu/4.9.2/ -mtune=corei7 -march=x86-64 -g -O2
REM COMMAND_LINE
REM seed -1242256863 -630871015 -2109640092 -942749501 1875552258 907762585 -1376787945 -1515759035 -1348360225 1659240521 752568052 671629550
REM
REM S 3|1.8|5|6|7|30:31:32(qc=5)
REM O 2|1.5|12|13|15|20:21(qc=5)
REM Li 1|1.3|8|9|10|10U:20(qc=5)
REM Fe 3|2.2|2.0|1.0|8|9|10|40:41:32(qc=5)
REM Fe d:4.0 
REM
CELL 1.54180    5.13989    8.12598   10.24351   90.00000   90.00000  108.43711
LATT -1
SFAC Li O  S  Fe 
Li     1 -0.3994650000000 -0.1869010000000  0.4571520000000 1.0  -0.01
Li     1  0.3994650000000  0.1869010000000 -0.0428480000000 1.0  -0.01
Li     1  0.2125650000000 -0.1869010000000 -0.0428480000000 1.0  -0.01
Li     1 -0.2125650000000  0.1869010000000  0.4571520000000 1.0  -0.01
O      2  0.2252420000000  0.0000000000000 -0.1812300000000 1.0   0.05
O      2 -0.2252420000000  0.0000000000000  0.3187700000000 1.0   0.05
S      3 -0.0826290000000  0.2867100000000 -0.0320380000000 1.0   0.03
S      3  0.0826290000000 -0.2867100000000  0.4679620000000 1.0   0.03
S      3  0.3693390000000  0.2867100000000  0.4679620000000 1.0   0.03
S      3 -0.3693390000000 -0.2867100000000 -0.0320380000000 1.0   0.03
S      3  0.2555370000000  0.0000000000000  0.1501990000000 1.0   0.17
S      3 -0.2555370000000  0.0000000000000 -0.3498010000000 1.0   0.17
Fe     4 -0.2428090000000 -0.1672360000000  0.1685900000000 1.0   3.78
Fe     4  0.2428090000000  0.1672360000000 -0.3314100000000 1.0   3.78
Fe     4  0.0755740000000 -0.1672360000000 -0.3314100000000 1.0   3.78
Fe     4 -0.0755740000000  0.1672360000000  0.1685900000000 1.0   3.78
Fe     4 -0.1752010000000  0.0000000000000 -0.1137960000000 1.0  -3.83
Fe     4  0.1752010000000  0.0000000000000  0.3862040000000 1.0  -3.83
END
