TITL LFSO-LiFe3S4O-201028-140603-e3ea8b -0.3960 334.636082 -8876.261531653 22.0003 23.1989 18 (P2/c) n - 1
REM
REM Run started: Wed, 28 Oct 2020 23:59:58 +0000 in /lustre/scratch/uccabz1/launch_tmp/launcher_2020-10-28-23-07-32-320386
REM CASTEP 20.1 from code version af48c487+ pr-geom-scf-spinfix Tue Jun 2 15:39:59 2020 +0100
REM Functional Perdew Burke Ernzerhof Relativity Koelling-Harmon Dispersion off
REM Cut-off 340.0000 eV Grid scale 1.7500 Gmax 16.5316 1/A FBSC none
REM MP grid 4 3 2 Offset 0.000 0.000 0.000 No. kpts 6 Spacing 0.07
REM Total runtime: 34545.8 s
REM Overall efficiency: 97.8889 %
REM
REM
REM
REM compiler GCC version 4.9.2
REM options -cpp -iprefix /lustre/shared/ucl/apps/gcc/4.9.2/bin/../lib/gcc/x86_64-unknown-linux-gnu/4.9.2/ -mtune=corei7 -march=x86-64 -g -Og
REM COMMAND_LINE
REM seed 411012953 -1348932245 -1508320354 889281373 -1614057478 638607107 -131832909 1095174444 -1035796055 764815031 431424345 1114793416
REM
REM S 3|1.8|5|6|7|30:31:32(qc=5)
REM O 2|1.5|12|13|15|20:21(qc=5)
REM Li 1|1.3|8|9|10|10U:20(qc=5)
REM Fe 3|2.2|2.0|1.0|8|9|10|40:41:32(qc=5)
REM Fe d:4.0 
REM
CELL 1.54180    4.91371    7.54785   10.40026   90.00000   90.00000  119.82446
LATT -1
SFAC Li O  S  Fe 
Li     1 -0.2500000000000 -0.2500000000000 -0.3245240000000 1.0  -0.03
Li     1  0.2500000000000  0.2500000000000  0.3245240000000 1.0  -0.03
O      2  0.2500000000000 -0.2500000000000  0.1990530000000 1.0   0.17
O      2 -0.2500000000000  0.2500000000000 -0.1990530000000 1.0   0.17
S      3 -0.3075210000000 -0.5177160000000  0.4722820000000 1.0  -0.00
S      3 -0.1924790000000  0.0177160000000  0.4722820000000 1.0  -0.00
S      3  0.3075210000000  0.5177160000000 -0.4722820000000 1.0  -0.00
S      3  0.1924790000000 -0.0177160000000 -0.4722820000000 1.0  -0.00
S      3 -0.4115280000000  0.3758690000000  0.1155740000000 1.0  -0.14
S      3 -0.0884720000000  0.1241310000000  0.1155740000000 1.0  -0.14
S      3  0.4115280000000 -0.3758690000000 -0.1155740000000 1.0  -0.14
S      3  0.0884720000000 -0.1241310000000 -0.1155740000000 1.0  -0.14
Fe     4  0.3417300000000  0.0068590000000  0.1149040000000 1.0   3.71
Fe     4  0.1582700000000  0.4931410000000  0.1149040000000 1.0   3.71
Fe     4 -0.3417300000000 -0.0068590000000 -0.1149040000000 1.0   3.71
Fe     4 -0.1582700000000 -0.4931410000000 -0.1149040000000 1.0   3.71
Fe     4 -0.2500000000000  0.2500000000000 -0.3830040000000 1.0   3.72
Fe     4  0.2500000000000 -0.2500000000000  0.3830040000000 1.0   3.72
END
