TITL LFSO-Li2Fe3S2O2-201024-044956-7970fe -0.1425 345.076868 -8.93550440E+003 -21.5791 22.2905 18 (C2) n - 1
REM
REM Run started: Sun, 25 Oct 2020 02:40:22 +0000 in /lustre/scratch/uccabz1/launch_tmp/launcher_2020-10-24-22-31-49-916716
REM CASTEP 20.1 from code version af48c487+ pr-geom-scf-spinfix Tue Jun 2 15:39:59 2020 +0100
REM Functional Perdew Burke Ernzerhof Relativity Koelling-Harmon Dispersion off
REM Cut-off 340.0000 eV Grid scale 1.7500 Gmax 16.5316 1/A FBSC none
REM MP grid 5 2 2 Offset 0.000 0.000 0.000 No. kpts 10 Spacing 0.07
REM Total runtime: 80018.7 s
REM Overall efficiency: 81.6364 %
REM
REM
REM
REM compiler GCC version 4.9.2
REM options -cpp -iprefix /lustre/shared/ucl/apps/gcc/4.9.2/bin/../lib/gcc/x86_64-unknown-linux-gnu/4.9.2/ -mtune=corei7 -march=x86-64 -g -Og
REM COMMAND_LINE
REM seed -1479645890 990158342 1145530431 1520926797 1531012051 276542638 -1320288650 1783166567 -925724390 -536191965 907941495 2110083047
REM
REM S 3|1.8|5|6|7|30:31:32(qc=5)
REM O 2|1.5|12|13|15|20:21(qc=5)
REM Li 1|1.3|8|9|10|10U:20(qc=5)
REM Fe 3|2.2|2.0|1.0|8|9|10|40:41:32(qc=5)
REM Fe d:4.0 
REM
CELL 1.54180    3.12382   11.86753   11.21255  121.95194  100.10174   90.00000
LATT -1
SFAC Li O  S  Fe 
Li     1 -0.1930780000000  0.5389650000000 -0.4398870000000 1.0   0.02
Li     1  0.1930760000000 -0.0211500000000  0.4398850000000 1.0   0.02
Li     1  0.1359600000000 -0.5292010000000  0.3160910000000 1.0  -0.02
Li     1 -0.1359620000000  0.1547070000000 -0.3160930000000 1.0  -0.02
O      2  0.1051840000000 -0.3578540000000 -0.2422250000000 1.0  -0.14
O      2 -0.1051860000000 -0.1156300000000  0.2422230000000 1.0  -0.14
O      2  0.3189710000000  0.1703940000000  0.5709640000000 1.0  -0.12
O      2 -0.3189730000000 -0.4005720000000 -0.5709660000000 1.0  -0.12
S      3 -0.2370480000000 -0.0928600000000 -0.4302220000000 1.0  -0.01
S      3  0.2370460000000  0.3373610000000  0.4302200000000 1.0  -0.01
S      3 -0.4426730000000  0.4845670000000  0.1112980000000 1.0  -0.02
S      3  0.4426710000000  0.3732680000000 -0.1113000000000 1.0  -0.02
Fe     4  0.2184030000000  0.5172910000000 -0.1840830000000 1.0  -3.37
Fe     4 -0.2184050000000 -0.2986270000000  0.1840810000000 1.0  -3.37
Fe     4  0.3167730000000 -0.1188040000000  0.1245100000000 1.0  -3.53
Fe     4 -0.3167750000000 -0.2433140000000 -0.1245120000000 1.0  -3.53
Fe     4  0.2130370000000 -0.2682630000000 -0.5138660000000 1.0  -3.60
Fe     4 -0.2130390000000  0.2456010000000  0.5138640000000 1.0  -3.60
END
