TITL LFSO-Li4Fe3S4O-201021-172406-365175 0.0283 556.542485 -1.00765434E+004 -23.9990 24.3746 24 (Fdd2) n - 1
REM
REM Run started: Fri, 23 Oct 2020 12:30:25 +0100 in /lustre/scratch/uccabz1/launch_tmp/launcher_2020-10-23-09-32-28-412116
REM CASTEP 20.1 from code version af48c487+ pr-geom-scf-spinfix Tue Jun 2 15:39:59 2020 +0100
REM Functional Perdew Burke Ernzerhof Relativity Koelling-Harmon Dispersion off
REM Cut-off 340.0000 eV Grid scale 1.7500 Gmax 16.5316 1/A FBSC none
REM MP grid 2 2 2 Offset 0.000 0.000 0.000 No. kpts 3 Spacing 0.07
REM Total runtime: 8114.59 s
REM Overall efficiency: 72.8333 %
REM
REM
REM
REM compiler GCC version 4.9.2
REM options -cpp -iprefix /scratch/UCL/applications/gcc/4.9.2/bin/../lib/gcc/x86_64-unknown-linux-gnu/4.9.2/ -mtune=corei7 -march=x86-64 -g -O2
REM COMMAND_LINE
REM seed 1198608336 571921737 -1573865950 -2112086937 1539626167 -1160026638 925447352 -541612927 398857069 260530587 1396515425 -1148275087
REM
REM S 3|1.8|5|6|7|30:31:32(qc=5)
REM O 2|1.5|12|13|15|20:21(qc=5)
REM Li 1|1.3|8|9|10|10U:20(qc=5)
REM Fe 3|2.2|2.0|1.0|8|9|10|40:41:32(qc=5)
REM Fe d:4.0 
REM
CELL 1.54180    8.37841    8.37841    9.66761  109.92065  109.92065  102.33989
LATT -1
SFAC Li O  S  Fe 
Li     1 -0.3267160000000 -0.2382760000000 -0.2296300000000 1.0   0.03
Li     1 -0.0086460000000 -0.0970860000000  0.2296300000000 1.0   0.03
Li     1 -0.3470860000000  0.2413540000000 -0.2703700000000 1.0   0.03
Li     1 -0.4882760000000 -0.0767160000000  0.2703700000000 1.0   0.03
Li     1  0.3554880000000 -0.4700160000000  0.1333140000000 1.0   0.02
Li     1  0.3966700000000  0.2221740000000 -0.1333140000000 1.0   0.02
Li     1 -0.0278260000000 -0.3533300000000  0.3666860000000 1.0   0.02
Li     1  0.2799840000000 -0.3945120000000 -0.3666860000000 1.0   0.02
O      2  0.3032410000000  0.3032410000000 -0.0000000000000 1.0  -0.23
O      2  0.0532410000000  0.5532410000000  0.5000000000000 1.0  -0.23
S      3  0.1889040000000 -0.2645460000000  0.1727070000000 1.0  -0.12
S      3 -0.4372530000000  0.0161970000000 -0.1727070000000 1.0  -0.12
S      3 -0.2338030000000 -0.1872530000000  0.3272930000000 1.0  -0.12
S      3 -0.5145460000000  0.4389040000000 -0.3272930000000 1.0  -0.12
S      3 -0.0305130000000 -0.1709780000000 -0.2162050000000 1.0  -0.12
S      3  0.0452280000000  0.1856920000000  0.2162050000000 1.0  -0.12
S      3 -0.0643080000000  0.2952280000000 -0.2837950000000 1.0  -0.12
S      3 -0.4209780000000  0.2194870000000  0.2837950000000 1.0  -0.12
Fe     4 -0.1034400000000 -0.0242370000000 -0.3906360000000 1.0  -3.81
Fe     4  0.3663990000000  0.2871970000000  0.3906360000000 1.0  -3.81
Fe     4  0.0371970000000 -0.3836010000000 -0.1093640000000 1.0  -3.81
Fe     4 -0.2742370000000  0.1465600000000  0.1093640000000 1.0  -3.81
Fe     4  0.1304090000000  0.1304090000000  0.0000000000000 1.0  -3.77
Fe     4 -0.1195910000000  0.3804090000000 -0.5000000000000 1.0  -3.77
END
