TITL LFSO-LiFe3S4O-201028-182550-398e86 0.0060 187.986125 -4.43843961E+003 11.0000 11.4617 9 (P2) n - 1
REM
REM Run started: Wed, 28 Oct 2020 21:06:19 +0000 in /lustre/scratch/uccabz1/launch_tmp/launcher_2020-10-28-18-25-48-484109
REM CASTEP 20.1 from code version af48c487+ pr-geom-scf-spinfix Tue Jun 2 15:39:59 2020 +0100
REM Functional Perdew Burke Ernzerhof Relativity Koelling-Harmon Dispersion off
REM Cut-off 340.0000 eV Grid scale 1.7500 Gmax 16.5316 1/A FBSC none
REM MP grid 5 2 3 Offset 0.000 0.000 0.000 No. kpts 10 Spacing 0.07
REM Total runtime: 9918.68 s
REM Overall efficiency: 82 %
REM
REM
REM
REM compiler GCC version 4.9.2
REM options -cpp -iprefix /lustre/shared/ucl/apps/gcc/4.9.2/bin/../lib/gcc/x86_64-unknown-linux-gnu/4.9.2/ -mtune=corei7 -march=x86-64 -g -Og
REM COMMAND_LINE
REM seed 528889314 -446714283 -345903319 -755142382 366236736 904874509 -1327464211 -1848825704 -1702690540 1442862960 -360875138 -614664403
REM
REM S 3|1.8|5|6|7|30:31:32(qc=5)
REM O 2|1.5|12|13|15|20:21(qc=5)
REM Li 1|1.3|8|9|10|10U:20(qc=5)
REM Fe 3|2.2|2.0|1.0|8|9|10|40:41:32(qc=5)
REM Fe d:4.0 
REM
CELL 1.54180    3.51867   10.58182    5.44619   90.00000   90.00000  112.02347
LATT -1
SFAC Li O  S  Fe 
Li     1 -0.5000000000000  0.0000000000000  0.2151110000000 1.0  -0.10
O      2 -0.5000000000000  0.0000000000000 -0.1272320000000 1.0   0.15
S      3 -0.3996750000000 -0.3944910000000 -0.0928890000000 1.0  -0.09
S      3  0.3996750000000  0.3944910000000 -0.0928890000000 1.0  -0.09
S      3 -0.1785190000000 -0.1856350000000  0.3758670000000 1.0   0.02
S      3  0.1785190000000  0.1856350000000  0.3758670000000 1.0   0.02
Fe     4 -0.7878980000000 -0.2893850000000  0.1561350000000 1.0   3.63
Fe     4  0.7878980000000  0.2893850000000  0.1561350000000 1.0   3.63
Fe     4  0.0000000000000  0.0000000000000 -0.2553930000000 1.0   3.84
END
