TITL LFSO-LiFe3S4O-201028-092408-28b2e8 0.0467 459.801919 -8.87603873E+003 22.0000 23.0143 18 (P-1) n - 1
REM
REM Run started: Thu, 29 Oct 2020 18:43:19 +0000 in /lustre/scratch/uccabz1/launch_tmp/launcher_2020-10-29-18-00-50-329301
REM CASTEP 20.1 from code version af48c487+ pr-geom-scf-spinfix Tue Jun 2 15:39:59 2020 +0100
REM Functional Perdew Burke Ernzerhof Relativity Koelling-Harmon Dispersion off
REM Cut-off 340.0000 eV Grid scale 1.7500 Gmax 16.5316 1/A FBSC none
REM MP grid 3 2 2 Offset 0.000 0.000 0.000 No. kpts 6 Spacing 0.07
REM Total runtime: 116255 s
REM Overall efficiency: 91.1429 %
REM
REM
REM
REM compiler GCC version 4.9.2
REM options -cpp -iprefix /scratch/UCL/applications/gcc/4.9.2/bin/../lib/gcc/x86_64-unknown-linux-gnu/4.9.2/ -mtune=corei7 -march=x86-64 -g -O2
REM COMMAND_LINE
REM seed 1361088064 1339241766 1247237034 -888984376 -1034206240 -592188818 -1769333406 -1913097487 1370060429 1048730011 -1631263081 -2133771774
REM
REM S 3|1.8|5|6|7|30:31:32(qc=5)
REM O 2|1.5|12|13|15|20:21(qc=5)
REM Li 1|1.3|8|9|10|10U:20(qc=5)
REM Fe 3|2.2|2.0|1.0|8|9|10|40:41:32(qc=5)
REM Fe d:4.0 
REM
CELL 1.54180    6.10888   11.09911   10.34725  123.60857   77.26572   69.02398
LATT -1
SFAC Li O  S  Fe 
Li     1  0.4547900000000  0.3712970000000 -0.2772580000000 1.0  -0.01
Li     1 -0.4547900000000 -0.3712970000000  0.2772580000000 1.0  -0.01
O      2 -0.2335000000000  0.3867030000000  0.1335990000000 1.0   0.20
O      2  0.2335000000000 -0.3867030000000 -0.1335990000000 1.0   0.20
S      3 -0.2390180000000  0.2760480000000  0.4219660000000 1.0  -0.05
S      3  0.2390180000000 -0.2760480000000 -0.4219660000000 1.0  -0.05
S      3  0.2071500000000 -0.0423930000000 -0.3032850000000 1.0  -0.10
S      3 -0.2071500000000  0.0423930000000  0.3032850000000 1.0  -0.10
S      3 -0.5307500000000 -0.1684550000000  0.2239330000000 1.0  -0.04
S      3  0.5307500000000  0.1684550000000 -0.2239330000000 1.0  -0.04
S      3  0.4138870000000  0.2066530000000  0.1425730000000 1.0   0.04
S      3 -0.4138870000000 -0.2066530000000 -0.1425730000000 1.0   0.04
Fe     4  0.0504670000000 -0.3036750000000 -0.2198550000000 1.0   3.72
Fe     4 -0.0504670000000  0.3036750000000  0.2198550000000 1.0   3.72
Fe     4  0.4617930000000  0.0136050000000 -0.1546570000000 1.0   3.55
Fe     4 -0.4617930000000 -0.0136050000000  0.1546570000000 1.0   3.55
Fe     4 -0.2741750000000  0.2265240000000 -0.0504140000000 1.0   3.70
Fe     4  0.2741750000000 -0.2265240000000  0.0504140000000 1.0   3.70
END
