TITL LFSO-Li4Fe3S3O2-201029-043002-b190bb -0.0412 296.347011 -5.17297055E+003 12.0000 12.1330 12 (Cm) n - 1
REM
REM Run started: Thu, 29 Oct 2020 11:38:59 +0000 in /lustre/scratch/uccabz1/launch_tmp/launcher_2020-10-29-04-30-01-053544
REM CASTEP 20.1 from code version af48c487+ pr-geom-scf-spinfix Tue Jun 2 15:39:59 2020 +0100
REM Functional Perdew Burke Ernzerhof Relativity Koelling-Harmon Dispersion off
REM Cut-off 340.0000 eV Grid scale 1.7500 Gmax 16.5316 1/A FBSC none
REM MP grid 5 2 2 Offset 0.000 0.000 0.000 No. kpts 8 Spacing 0.07
REM Total runtime: 28909.4 s
REM Overall efficiency: 97.0833 %
REM
REM
REM
REM compiler GCC version 4.9.2
REM options -cpp -iprefix /lustre/shared/ucl/apps/gcc/4.9.2/bin/../lib/gcc/x86_64-unknown-linux-gnu/4.9.2/ -mtune=corei7 -march=x86-64 -g -Og
REM COMMAND_LINE
REM seed -536621984 -1393070317 454075101 -2058866729 -10589673 -1397653943 -1204248130 1487507366 -614569915 -1827818309 1801289977 -755462819
REM
REM S 3|1.8|5|6|7|30:31:32(qc=5)
REM O 2|1.5|12|13|15|20:21(qc=5)
REM Li 1|1.3|8|9|10|10U:20(qc=5)
REM Fe 3|2.2|2.0|1.0|8|9|10|40:41:32(qc=5)
REM Fe d:4.0 
REM
CELL 1.54180    3.72640   11.95437   11.95437   43.45373   56.91431   56.91431
LATT -1
SFAC Li O  S  Fe 
Li     1 -0.3903510000000 -0.5194790000000  0.0250030000000 1.0  -0.06
Li     1 -0.3903510000000  0.0250030000000 -0.5194790000000 1.0  -0.06
Li     1  0.1595220000000 -0.1196270000000  0.2123540000000 1.0   0.02
Li     1  0.1595220000000  0.2123540000000 -0.1196270000000 1.0   0.02
O      2  0.0139410000000  0.0785580000000 -0.5142150000000 1.0   0.16
O      2  0.0139410000000 -0.5142150000000  0.0785580000000 1.0   0.16
S      3 -0.0865350000000  0.2150590000000 -0.2817410000000 1.0   0.12
S      3 -0.0865350000000 -0.2817410000000  0.2150590000000 1.0   0.12
S      3 -0.0394390000000  0.1472290000000  0.1472290000000 1.0   0.09
Fe     4 -0.3186410000000 -0.3817110000000  0.1589110000000 1.0   3.81
Fe     4 -0.3186410000000  0.1589110000000 -0.3817110000000 1.0   3.81
Fe     4  0.1679700000000  0.2325940000000  0.2325940000000 1.0   3.82
END
