TITL LFSO-Li2Fe3S2O2-201024-032956-bd3f50 -0.0195 338.134699 -8.93962867E+003 24.0000 24.1940 18 (P21) n - 1
REM
REM Run started: Sat, 24 Oct 2020 06:43:40 +0100 in /lustre/scratch/uccabz1/launch_tmp/launcher_2020-10-24-02-29-54-875567
REM CASTEP 20.1 from code version af48c487+ pr-geom-scf-spinfix Tue Jun 2 15:39:59 2020 +0100
REM Functional Perdew Burke Ernzerhof Relativity Koelling-Harmon Dispersion off
REM Cut-off 340.0000 eV Grid scale 1.7500 Gmax 16.5316 1/A FBSC none
REM MP grid 3 3 2 Offset 0.000 0.000 0.000 No. kpts 5 Spacing 0.07
REM Total runtime: 12088.5 s
REM Overall efficiency: 76.9091 %
REM
REM
REM
REM compiler GCC version 4.9.2
REM options -cpp -iprefix /lustre/shared/ucl/apps/gcc/4.9.2/bin/../lib/gcc/x86_64-unknown-linux-gnu/4.9.2/ -mtune=corei7 -march=x86-64 -g -Og
REM COMMAND_LINE
REM seed -1618153366 1439881849 438398232 -1735029766 730361937 1485116526 1404081493 -934228237 -507500898 1334833024 893097764 -1093651644
REM
REM S 3|1.8|5|6|7|30:31:32(qc=5)
REM O 2|1.5|12|13|15|20:21(qc=5)
REM Li 1|1.3|8|9|10|10U:20(qc=5)
REM Fe 3|2.2|2.0|1.0|8|9|10|40:41:32(qc=5)
REM Fe d:4.0 
REM
CELL 1.54180    6.41478    5.34254   10.07871   90.00000   90.00000  101.78011
LATT -1
SFAC Li O  S  Fe 
Li     1 -0.3488680000000  0.1538500000000  0.1598830000000 1.0  -0.07
Li     1  0.3488680000000 -0.1538500000000 -0.3401170000000 1.0  -0.07
Li     1 -0.0378780000000  0.1174350000000 -0.4152460000000 1.0  -0.07
Li     1  0.0378780000000 -0.1174350000000  0.0847540000000 1.0  -0.07
O      2  0.4675870000000 -0.3345180000000 -0.2113300000000 1.0   0.21
O      2 -0.4675870000000  0.3345180000000  0.2886700000000 1.0   0.21
O      2  0.2540810000000  0.1339690000000  0.6070930000000 1.0   0.14
O      2 -0.2540810000000 -0.1339690000000  0.1070930000000 1.0   0.14
S      3 -0.1383720000000  0.2893770000000 -0.2018070000000 1.0   0.10
S      3  0.1383720000000 -0.2893770000000  0.2981930000000 1.0   0.10
S      3  0.3323560000000  0.1654510000000 -0.0024430000000 1.0   0.09
S      3 -0.3323560000000 -0.1654510000000 -0.5024430000000 1.0   0.09
Fe     4  0.4013980000000  0.1146450000000 -0.5624450000000 1.0   3.87
Fe     4 -0.4013980000000 -0.1146450000000 -0.0624450000000 1.0   3.87
Fe     4  0.2494240000000  0.3231050000000 -0.2170720000000 1.0   3.87
Fe     4 -0.2494240000000 -0.3231050000000  0.2829280000000 1.0   3.87
Fe     4 -0.2969060000000 -0.4196690000000 -0.3145230000000 1.0   3.85
Fe     4  0.2969060000000  0.4196690000000  0.1854770000000 1.0   3.85
END
