TITL LFSO-Li2Fe3S3O-201026-121642-d67e98 0.1492 504.269540 -8.66438397E+003 18.0579 19.8302 18 (Cc) n - 1
REM
REM Run started: Tue, 27 Oct 2020 10:15:08 +0000 in /scratch/scratch/uccabz1/launch_tmp/launcher_2020-10-27-08-53-33-337252
REM CASTEP 19.11| from code version Version unavailable
REM Functional Perdew Burke Ernzerhof Relativity Koelling-Harmon Dispersion off
REM Cut-off 340.0000 eV Grid scale 1.7500 Gmax 16.5316 1/A FBSC none
REM MP grid 5 2 2 Offset 0.000 0.000 0.000 No. kpts 8 Spacing 0.07
REM Total runtime: 78704.8 s
REM Overall efficiency: 71.2857 %
REM
REM
REM
REM compiler GCC version 4.9.2
REM options -cpp -iprefix /scratch/UCL/applications/gcc/4.9.2/bin/../lib/gcc/x86_64-unknown-linux-gnu/4.9.2/ -mtune=corei7 -march=x86-64 -g -O2
REM COMMAND_LINE
REM seed -25841592 -652636248 -1316624420 -1153656779 -588247985 -114286218 -1948004592 -1767869535 -1706295101 490012247 640204453 1470360375
REM
REM S 3|1.8|5|6|7|30:31:32(qc=5)
REM O 2|1.5|12|13|15|20:21(qc=5)
REM Li 1|1.3|8|9|10|10U:20(qc=5)
REM Fe 3|2.2|2.0|1.0|8|9|10|40:41:32(qc=5)
REM Fe d:4.0 
REM
CELL 1.54180    3.63495   15.63709   15.63709  143.53065   95.35385   95.35385
LATT -1
SFAC Li O  S  Fe 
Li     1  0.1863690000000  0.1790280000000  0.5041400000000 1.0  -0.02
Li     1  0.6863690000000  0.5041400000000  0.1790280000000 1.0  -0.02
Li     1  0.3252760000000  0.0898480000000  0.0368100000000 1.0  -0.04
Li     1 -0.1747240000000  0.0368100000000  0.0898480000000 1.0  -0.04
O      2 -0.1927810000000  0.0813830000000 -0.0007040000000 1.0   0.11
O      2  0.3072190000000 -0.0007040000000  0.0813830000000 1.0   0.11
S      3 -0.6329500000000 -0.3427190000000  0.4269980000000 1.0  -0.15
S      3 -0.1329500000000  0.4269980000000 -0.3427190000000 1.0  -0.15
S      3 -0.4048710000000 -0.0194310000000 -0.3367410000000 1.0  -0.24
S      3  0.0951290000000 -0.3367410000000 -0.0194310000000 1.0  -0.24
S      3  0.1694170000000  0.4322020000000  0.1990830000000 1.0  -0.05
S      3 -0.3305830000000  0.1990830000000  0.4322020000000 1.0  -0.05
Fe     4 -0.4490480000000 -0.2777520000000 -0.3537430000000 1.0   3.42
Fe     4  0.0509520000000 -0.3537430000000 -0.2777520000000 1.0   3.42
Fe     4 -0.2962360000000  0.0144030000000 -0.1650870000000 1.0   3.47
Fe     4  0.2037640000000 -0.1650870000000  0.0144030000000 1.0   3.47
Fe     4 -0.0246450000000 -0.1875420000000  0.5359930000000 1.0   2.52
Fe     4 -0.5246450000000  0.5359930000000 -0.1875420000000 1.0   2.52
END
