TITL LFSO-Li2Fe3S2O2-201022-082245-ce62a0 0.0079 149.092297 -4.46811624E+003 -3.99999 11.3735 9 (P2) n - 1
REM
REM Run started: Thu, 22 Oct 2020 09:40:15 +0100 in /lustre/scratch/uccabz1/launch_tmp/launcher_2020-10-22-07-22-43-635510
REM CASTEP 20.1 from code version af48c487+ pr-geom-scf-spinfix Tue Jun 2 15:39:59 2020 +0100
REM Functional Perdew Burke Ernzerhof Relativity Koelling-Harmon Dispersion off
REM Cut-off 340.0000 eV Grid scale 1.7500 Gmax 16.5316 1/A FBSC none
REM MP grid 4 3 2 Offset 0.000 0.000 0.000 No. kpts 8 Spacing 0.07
REM Total runtime: 4699.44 s
REM Overall efficiency: 85.375 %
REM
REM
REM
REM compiler GCC version 4.9.2
REM options -cpp -iprefix /lustre/shared/ucl/apps/gcc/4.9.2/bin/../lib/gcc/x86_64-unknown-linux-gnu/4.9.2/ -mtune=corei7 -march=x86-64 -g -Og
REM COMMAND_LINE
REM seed 856724575 1435981367 -788666623 1697279715 -1058239210 144733742 617477750 -948542181 -1413917803 614374797 -184481169 -1970979030
REM
REM S 3|1.8|5|6|7|30:31:32(qc=5)
REM O 2|1.5|12|13|15|20:21(qc=5)
REM Li 1|1.3|8|9|10|10U:20(qc=5)
REM Fe 3|2.2|2.0|1.0|8|9|10|40:41:32(qc=5)
REM Fe d:4.0 
REM
CELL 1.54180    3.89517    5.30779    7.70050   90.00000  110.53228   90.00000
LATT -1
SFAC Li O  S  Fe 
Li     1  0.1401380000000  0.1572250000000  0.3753510000000 1.0   0.03
Li     1 -0.1401380000000  0.1572250000000 -0.3753510000000 1.0   0.03
O      2  0.0418290000000 -0.1729010000000  0.2895090000000 1.0  -0.05
O      2 -0.0418290000000 -0.1729010000000 -0.2895090000000 1.0  -0.05
S      3 -0.4360090000000  0.3311840000000  0.2692330000000 1.0  -0.07
S      3  0.4360090000000  0.3311840000000 -0.2692330000000 1.0  -0.07
Fe     4  0.4934480000000 -0.1292300000000  0.2177760000000 1.0  -3.80
Fe     4 -0.4934480000000 -0.1292300000000 -0.2177760000000 1.0  -3.80
Fe     4  0.0000000000000 -0.3857200000000  0.5000000000000 1.0   3.77
END
