TITL LFSO-Li2Fe3S2O2-201024-035138-ec931a -0.0048 313.742672 -8.93782428E+003 23.9999 24.1700 18 (R3) n - 1
REM
REM Run started: Sat, 24 Oct 2020 09:14:03 +0100 in /lustre/scratch/uccabz1/launch_tmp/launcher_2020-10-24-02-51-36-441804
REM CASTEP 20.1 from code version af48c487+ pr-geom-scf-spinfix Tue Jun 2 15:39:59 2020 +0100
REM Functional Perdew Burke Ernzerhof Relativity Koelling-Harmon Dispersion off
REM Cut-off 340.0000 eV Grid scale 1.7500 Gmax 16.5316 1/A FBSC none
REM MP grid 3 3 3 Offset 0.000 0.000 0.000 No. kpts 6 Spacing 0.07
REM Total runtime: 20945.7 s
REM Overall efficiency: 97.75 %
REM
REM
REM
REM compiler GCC version 4.9.2
REM options -cpp -iprefix /lustre/shared/ucl/apps/gcc/4.9.2/bin/../lib/gcc/x86_64-unknown-linux-gnu/4.9.2/ -mtune=corei7 -march=x86-64 -g -Og
REM COMMAND_LINE
REM seed -1100510940 446419001 354726595 1952727962 484699440 -2019810610 1572532374 -24601093 -1661651274 -1740243255 -618684225 -129640377
REM
REM S 3|1.8|5|6|7|30:31:32(qc=5)
REM O 2|1.5|12|13|15|20:21(qc=5)
REM Li 1|1.3|8|9|10|10U:20(qc=5)
REM Fe 3|2.2|2.0|1.0|8|9|10|40:41:32(qc=5)
REM Fe d:4.0 
REM
CELL 1.54180    7.40402    7.40402    7.40402   64.23859   64.23859   64.23859
LATT -1
SFAC Li O  S  Fe 
Li     1 -0.2780020000000 -0.0015910000000  0.1296520000000 1.0  -0.05
Li     1  0.1296520000000 -0.2780020000000 -0.0015910000000 1.0  -0.05
Li     1 -0.0015910000000  0.1296520000000 -0.2780020000000 1.0  -0.05
Li     1 -0.1821570000000 -0.1821570000000 -0.1821570000000 1.0  -0.09
O      2  0.5556960000000 -0.1637480000000  0.3705690000000 1.0   0.16
O      2  0.3705690000000  0.5556960000000 -0.1637480000000 1.0   0.16
O      2 -0.1637480000000  0.3705690000000  0.5556960000000 1.0   0.16
O      2 -0.0812030000000 -0.0812030000000 -0.0812030000000 1.0   0.06
S      3 -0.1151100000000  0.4323620000000 -0.0236320000000 1.0   0.13
S      3 -0.0236320000000 -0.1151100000000  0.4323620000000 1.0   0.13
S      3  0.4323620000000 -0.0236320000000 -0.1151100000000 1.0   0.13
S      3  0.4013900000000  0.4013900000000  0.4013900000000 1.0   0.14
Fe     4 -0.4387080000000  0.2997620000000 -0.2696270000000 1.0   3.89
Fe     4 -0.2696270000000 -0.4387080000000  0.2997620000000 1.0   3.89
Fe     4  0.2997620000000 -0.2696270000000 -0.4387080000000 1.0   3.89
Fe     4 -0.4370940000000 -0.0089300000000 -0.4644700000000 1.0   3.83
Fe     4 -0.4644700000000 -0.4370940000000 -0.0089300000000 1.0   3.83
Fe     4 -0.0089300000000 -0.4644700000000 -0.4370940000000 1.0   3.83
END
