TITL LFSO-LiFe3S4O-201028-094805-5fd6b8 0.0205 387.102587 -8.87481403E+003 21.2495 22.7626 18 (Ccc2) n - 1
REM
REM Run started: Wed, 28 Oct 2020 15:58:37 +0000 in /scratch/scratch/uccabz1/launch_tmp/launcher_2020-10-28-09-48-03-789246
REM CASTEP 19.11| from code version Version unavailable
REM Functional Perdew Burke Ernzerhof Relativity Koelling-Harmon Dispersion off
REM Cut-off 340.0000 eV Grid scale 1.7500 Gmax 16.5316 1/A FBSC none
REM MP grid 5 2 2 Offset 0.000 0.000 0.000 No. kpts 5 Spacing 0.07
REM Total runtime: 22344.6 s
REM Overall efficiency: 80.4444 %
REM
REM
REM
REM compiler GCC version 4.9.2
REM options -cpp -iprefix /scratch/UCL/applications/gcc/4.9.2/bin/../lib/gcc/x86_64-unknown-linux-gnu/4.9.2/ -mtune=corei7 -march=x86-64 -g -O2
REM COMMAND_LINE
REM seed -1973249259 -806970916 1232811460 1419104057 -1932660386 918492225 1316081758 -413160894 350613600 105920724 274182686 557675843
REM
REM S 3|1.8|5|6|7|30:31:32(qc=5)
REM O 2|1.5|12|13|15|20:21(qc=5)
REM Li 1|1.3|8|9|10|10U:20(qc=5)
REM Fe 3|2.2|2.0|1.0|8|9|10|40:41:32(qc=5)
REM Fe d:4.0 
REM
CELL 1.54180    2.98406    9.40119   13.97575   90.00000   90.00000   99.13184
LATT -1
SFAC Li O  S  Fe 
Li     1  0.0000000000000 -0.5000000000000 -0.0207540000000 1.0   0.06
Li     1  0.5000000000000  0.5000000000000  0.4792460000000 1.0   0.06
O      2  0.0000000000000  0.0000000000000 -0.2850510000000 1.0   0.17
O      2  0.0000000000000  0.0000000000000  0.2149490000000 1.0   0.17
S      3  0.4461940000000 -0.3215360000000  0.3504080000000 1.0  -0.12
S      3 -0.4461940000000  0.3215360000000  0.3504080000000 1.0  -0.12
S      3  0.2322700000000 -0.3215360000000 -0.1495920000000 1.0  -0.12
S      3 -0.2322700000000  0.3215360000000 -0.1495920000000 1.0  -0.12
S      3  0.0918280000000  0.3309280000000 -0.3819740000000 1.0  -0.07
S      3 -0.0918280000000 -0.3309280000000 -0.3819740000000 1.0  -0.07
S      3  0.2391000000000  0.3309280000000  0.1180260000000 1.0  -0.07
S      3 -0.2391000000000 -0.3309280000000  0.1180260000000 1.0  -0.07
Fe     4 -0.6113950000000 -0.1574240000000  0.2129970000000 1.0   3.76
Fe     4  0.6113950000000  0.1574240000000  0.2129970000000 1.0   3.76
Fe     4  0.4539710000000 -0.1574240000000 -0.2870030000000 1.0   3.76
Fe     4 -0.4539710000000  0.1574240000000 -0.2870030000000 1.0   3.76
Fe     4  0.0000000000000  0.5000000000000 -0.2617080000000 1.0   3.26
Fe     4 -0.5000000000000 -0.5000000000000  0.2382920000000 1.0   3.26
END
