TITL LFSO-Li3FeS2O-201025-044244-64c6a9 0.0279 203.065784 -5.01524195E+003 9.79212 9.81980 14 (Pnc2) n - 1
REM
REM Run started: Sun, 25 Oct 2020 05:03:12 +0000 in /scratch/scratch/uccabz1/launch_tmp/launcher_2020-10-25-04-42-43-239896
REM CASTEP 19.11| from code version Version unavailable
REM Functional Perdew Burke Ernzerhof Relativity Koelling-Harmon Dispersion off
REM Cut-off 340.0000 eV Grid scale 1.7500 Gmax 16.5316 1/A FBSC none
REM MP grid 5 3 2 Offset 0.000 0.000 0.000 No. kpts 6 Spacing 0.07
REM Total runtime: 1300.34 s
REM Overall efficiency: 72.5714 %
REM
REM
REM
REM compiler GCC version 4.9.2
REM options -cpp -iprefix /scratch/UCL/applications/gcc/4.9.2/bin/../lib/gcc/x86_64-unknown-linux-gnu/4.9.2/ -mtune=corei7 -march=x86-64 -g -O2
REM COMMAND_LINE
REM seed 1038960566 834521197 83255127 -573238574 25213732 -1889851029 944531084 156607705 -108476046 -864440912 531781988 -1814531198
REM
REM S 3|1.8|5|6|7|30:31:32(qc=5)
REM O 2|1.5|12|13|15|20:21(qc=5)
REM Li 1|1.3|8|9|10|10U:20(qc=5)
REM Fe 3|2.2|2.0|1.0|8|9|10|40:41:32(qc=5)
REM Fe d:4.0 
REM
CELL 1.54180    3.41686    5.60895   10.59566   90.00000   90.00000   90.00000
LATT -1
SFAC Li O  S  Fe 
Li     1 -0.4818860000000  0.0150230000000  0.3214910000000 1.0   0.03
Li     1  0.4818860000000  0.0150230000000 -0.3214910000000 1.0   0.03
Li     1 -0.4818860000000 -0.4849770000000  0.1785090000000 1.0   0.03
Li     1  0.4818860000000 -0.4849770000000 -0.1785090000000 1.0   0.03
Li     1  0.0000000000000  0.0134660000000 -0.5000000000000 1.0  -0.03
Li     1  0.0000000000000 -0.4865340000000 -0.0000000000000 1.0  -0.03
O      2 -0.5000000000000 -0.1369800000000  0.5000000000000 1.0   0.23
O      2 -0.5000000000000  0.3630200000000 -0.0000000000000 1.0   0.23
S      3  0.0049550000000  0.3646890000000  0.3480770000000 1.0   0.34
S      3 -0.0049550000000  0.3646890000000 -0.3480770000000 1.0   0.34
S      3  0.0049550000000 -0.1353110000000  0.1519230000000 1.0   0.34
S      3 -0.0049550000000 -0.1353110000000 -0.1519230000000 1.0   0.34
Fe     4  0.5000000000000  0.0246200000000 -0.0000000000000 1.0   3.96
Fe     4 -0.5000000000000 -0.4753800000000  0.5000000000000 1.0   3.96
END
