TITL LFSO-Li2Fe4S3O2-201025-125611-d0dcb7 0.0149 216.531882 -5.63627678E+003 16.0000 16.1541 11 (P-1) n - 1
REM
REM Run started: Sun, 25 Oct 2020 17:04:06 +0000 in /lustre/scratch/uccabz1/launch_tmp/launcher_2020-10-25-12-56-09-621873
REM CASTEP 20.1 from code version af48c487+ pr-geom-scf-spinfix Tue Jun 2 15:39:59 2020 +0100
REM Functional Perdew Burke Ernzerhof Relativity Koelling-Harmon Dispersion off
REM Cut-off 340.0000 eV Grid scale 1.7500 Gmax 16.5316 1/A FBSC none
REM MP grid 6 3 2 Offset 0.000 0.000 0.000 No. kpts 18 Spacing 0.07
REM Total runtime: 15677.4 s
REM Overall efficiency: 95.0769 %
REM
REM
REM
REM compiler GCC version 4.9.2
REM options -cpp -iprefix /lustre/shared/ucl/apps/gcc/4.9.2/bin/../lib/gcc/x86_64-unknown-linux-gnu/4.9.2/ -mtune=corei7 -march=x86-64 -g -Og
REM COMMAND_LINE
REM seed 840663969 -450414462 197313024 -223397255 857440372 -535180356 -326713101 1553143295 -1549492371 -793282495 2008831219 1370539995
REM
REM S 3|1.8|5|6|7|30:31:32(qc=5)
REM O 2|1.5|12|13|15|20:21(qc=5)
REM Li 1|1.3|8|9|10|10U:20(qc=5)
REM Fe 3|2.2|2.0|1.0|8|9|10|40:41:32(qc=5)
REM Fe d:4.0 
REM
CELL 1.54180    3.87054    9.20601   12.24259   45.37537   63.75252   44.59987
LATT -1
SFAC Li O  S  Fe 
Li     1  0.5422220000000 -0.3585730000000 -0.0151800000000 1.0  -0.04
Li     1 -0.5422220000000  0.3585730000000  0.0151800000000 1.0  -0.04
O      2 -0.0044540000000  0.2522990000000  0.1266050000000 1.0   0.17
O      2  0.0044540000000 -0.2522990000000 -0.1266050000000 1.0   0.17
S      3  0.3095640000000 -0.3206460000000  0.2001910000000 1.0   0.12
S      3 -0.3095640000000  0.3206460000000 -0.2001910000000 1.0   0.12
S      3 -0.5000000000000  0.0000000000000 -0.5000000000000 1.0   0.13
Fe     4 -0.5392100000000 -0.0951480000000  0.1793710000000 1.0   3.84
Fe     4  0.5392100000000  0.0951480000000 -0.1793710000000 1.0   3.84
Fe     4 -0.1238520000000  0.2163380000000  0.3183850000000 1.0   3.85
Fe     4  0.1238520000000 -0.2163380000000 -0.3183850000000 1.0   3.85
END
