TITL LFSO-Li3FeS2O-201023-063354-98802a 0.4127 333.211551 -7.52050037E+003 11.6013 11.9290 21 (P-1) n - 1
REM
REM Run started: Sat, 24 Oct 2020 14:42:37 +0100 in /lustre/scratch/uccabz1/launch_tmp/launcher_2020-10-24-11-15-03-357407
REM CASTEP 20.1 from code version af48c487+ pr-geom-scf-spinfix Tue Jun 2 15:39:59 2020 +0100
REM Functional Perdew Burke Ernzerhof Relativity Koelling-Harmon Dispersion off
REM Cut-off 340.0000 eV Grid scale 1.7500 Gmax 16.5316 1/A FBSC none
REM MP grid 5 3 2 Offset 0.000 0.000 0.000 No. kpts 15 Spacing 0.07
REM Total runtime: 120646 s
REM Overall efficiency: 79.6364 %
REM
REM
REM
REM compiler GCC version 4.9.2
REM options -cpp -iprefix /lustre/shared/ucl/apps/gcc/4.9.2/bin/../lib/gcc/x86_64-unknown-linux-gnu/4.9.2/ -mtune=corei7 -march=x86-64 -g -Og
REM COMMAND_LINE
REM seed -2092795111 -1263336867 -441868717 606076088 -393856227 949014242 -924336619 -1277192453 671192266 2041606297 1167471937 1475076434
REM
REM S 3|1.8|5|6|7|30:31:32(qc=5)
REM O 2|1.5|12|13|15|20:21(qc=5)
REM Li 1|1.3|8|9|10|10U:20(qc=5)
REM Fe 3|2.2|2.0|1.0|8|9|10|40:41:32(qc=5)
REM Fe d:4.0 
REM
CELL 1.54180    3.72993    7.69194   15.94423  121.43306  109.75809   59.04943
LATT -1
SFAC Li O  S  Fe 
Li     1  0.4752490000000  0.5260010000000 -0.0745990000000 1.0   0.03
Li     1 -0.4752490000000 -0.5260010000000  0.0745990000000 1.0   0.03
Li     1  0.2524560000000  0.4515960000000  0.2334480000000 1.0   0.00
Li     1 -0.2524560000000 -0.4515960000000 -0.2334480000000 1.0   0.00
Li     1 -0.4450370000000 -0.1866500000000  0.3895360000000 1.0   0.02
Li     1  0.4450370000000  0.1866500000000 -0.3895360000000 1.0   0.02
Li     1  0.2563430000000 -0.1462940000000 -0.4017900000000 1.0  -0.08
Li     1 -0.2563430000000  0.1462940000000  0.4017900000000 1.0  -0.08
Li     1  0.0000000000000  0.0000000000000  0.0000000000000 1.0   0.00
O      2  0.2746730000000  0.0728450000000  0.3689340000000 1.0   0.14
O      2 -0.2746730000000 -0.0728450000000 -0.3689340000000 1.0   0.14
O      2  0.0000000000000 -0.5000000000000  0.0000000000000 1.0  -0.02
S      3  0.1288600000000 -0.2344120000000 -0.1585210000000 1.0  -0.00
S      3 -0.1288600000000  0.2344120000000  0.1585210000000 1.0  -0.00
S      3  0.3051060000000 -0.3933340000000  0.4149450000000 1.0   0.03
S      3 -0.3051060000000  0.3933340000000 -0.4149450000000 1.0   0.03
S      3 -0.1309890000000 -0.2655060000000  0.1586000000000 1.0   0.01
S      3  0.1309890000000  0.2655060000000 -0.1586000000000 1.0   0.01
Fe     4  0.2071600000000 -0.0143730000000  0.2308830000000 1.0   3.75
Fe     4 -0.2071600000000  0.0143730000000 -0.2308830000000 1.0   3.75
Fe     4  0.0000000000000 -0.5000000000000 -0.5000000000000 1.0   3.81
END
