TITL LFSO-Li2FeSO-201023-084024-e11c3b 0.3464 654.998881 -8.01390203E+003 12.0000 14.4726 20 (C2) n - 1
REM
REM Run started: Fri, 23 Oct 2020 23:52:57 +0100 in /lustre/scratch/uccabz1/launch_tmp/launcher_2020-10-23-07-40-23-178540
REM CASTEP 20.1 from code version af48c487+ pr-geom-scf-spinfix Tue Jun 2 15:39:59 2020 +0100
REM Functional Perdew Burke Ernzerhof Relativity Koelling-Harmon Dispersion off
REM Cut-off 340.0000 eV Grid scale 1.7500 Gmax 16.5316 1/A FBSC none
REM MP grid 5 2 2 Offset 0.000 0.000 0.000 No. kpts 8 Spacing 0.07
REM Total runtime: 78136.8 s
REM Overall efficiency: 98.1667 %
REM
REM
REM
REM compiler GCC version 4.9.2
REM options -cpp -iprefix /lustre/shared/ucl/apps/gcc/4.9.2/bin/../lib/gcc/x86_64-unknown-linux-gnu/4.9.2/ -mtune=corei7 -march=x86-64 -g -Og
REM COMMAND_LINE
REM seed 122315350 985360920 1068912984 1579265987 -1307812757 522784679 761220955 1932312453 -1956485563 1967852441 1647855403 67902499
REM
REM S 3|1.8|5|6|7|30:31:32(qc=5)
REM O 2|1.5|12|13|15|20:21(qc=5)
REM Li 1|1.3|8|9|10|10U:20(qc=5)
REM Fe 3|2.2|2.0|1.0|8|9|10|40:41:32(qc=5)
REM Fe d:4.0 
REM
CELL 1.54180    3.82316   20.24034   20.24034   32.62286  127.27709  127.27709
LATT -1
SFAC Li O  S  Fe 
Li     1  0.5430040000000 -0.5686420000000  0.3021730000000 1.0  -0.02
Li     1 -0.5430040000000 -0.3021730000000  0.5686420000000 1.0  -0.02
Li     1 -0.1743490000000 -0.5199940000000  0.1829390000000 1.0   0.00
Li     1  0.1743490000000 -0.1829390000000  0.5199940000000 1.0   0.00
Li     1 -0.3948110000000 -0.0220110000000  0.3223120000000 1.0  -0.01
Li     1  0.3948110000000 -0.3223120000000  0.0220110000000 1.0  -0.01
Li     1  0.0498510000000  0.4860920000000  0.0435250000000 1.0  -0.01
Li     1 -0.0498510000000 -0.0435250000000 -0.4860920000000 1.0  -0.01
O      2 -0.0515280000000 -0.3493600000000 -0.3877380000000 1.0   0.17
O      2  0.0515280000000  0.3877380000000  0.3493600000000 1.0   0.17
O      2 -0.2620670000000 -0.1274140000000  0.4880370000000 1.0   0.01
O      2  0.2620670000000 -0.4880370000000  0.1274140000000 1.0   0.01
S      3 -0.0063200000000  0.0855790000000  0.1643400000000 1.0  -0.09
S      3  0.0063200000000 -0.1643400000000 -0.0855790000000 1.0  -0.09
S      3  0.7371620000000  0.4303550000000 -0.0786480000000 1.0  -0.00
S      3 -0.7371620000000  0.0786480000000 -0.4303550000000 1.0  -0.00
Fe     4 -0.0728800000000  0.2191400000000 -0.5163830000000 1.0   3.77
Fe     4  0.0728800000000  0.5163830000000 -0.2191400000000 1.0   3.77
Fe     4  0.5871110000000  0.2136150000000  0.0625620000000 1.0   2.18
Fe     4 -0.5871110000000 -0.0625620000000 -0.2136150000000 1.0   2.18
END
