TITL LFSO-Li5FeSO3-201026-194111-90ccf4 0.5444 434.655285 -6.95643656E+003 7.49381 7.70523 20 (Pm) n - 1
REM
REM Run started: Mon, 26 Oct 2020 22:57:21 +0000 in /lustre/scratch/uccabz1/launch_tmp/launcher_2020-10-26-19-41-09-991094
REM CASTEP 20.1 from code version af48c487+ pr-geom-scf-spinfix Tue Jun 2 15:39:59 2020 +0100
REM Functional Perdew Burke Ernzerhof Relativity Koelling-Harmon Dispersion off
REM Cut-off 340.0000 eV Grid scale 1.7500 Gmax 16.5316 1/A FBSC none
REM MP grid 5 2 1 Offset 0.000 0.000 0.000 No. kpts 5 Spacing 0.07
REM Total runtime: 13222.6 s
REM Overall efficiency: 72.1667 %
REM
REM
REM
REM compiler GCC version 4.9.2
REM options -cpp -iprefix /lustre/shared/ucl/apps/gcc/4.9.2/bin/../lib/gcc/x86_64-unknown-linux-gnu/4.9.2/ -mtune=corei7 -march=x86-64 -g -Og
REM COMMAND_LINE
REM seed -815740072 -1703052364 373061733 -2026299383 -207225008 -2021860283 1897741128 -541409156 -550027613 206449784 334983063 -287962643
REM
REM S 3|1.8|5|6|7|30:31:32(qc=5)
REM O 2|1.5|12|13|15|20:21(qc=5)
REM Li 1|1.3|8|9|10|10U:20(qc=5)
REM Fe 3|2.2|2.0|1.0|8|9|10|40:41:32(qc=5)
REM Fe d:4.0 
REM
CELL 1.54180    3.33665    8.13244   16.02478   90.00000   90.00000   88.35383
LATT -1
SFAC Li O  S  Fe 
Li     1  0.4151760000000 -0.1119000000000  0.2401120000000 1.0  -0.02
Li     1  0.4151760000000 -0.1119000000000 -0.2401120000000 1.0  -0.02
Li     1 -0.5309310000000  0.5183040000000 -0.2774730000000 1.0  -0.02
Li     1 -0.5309310000000  0.5183040000000  0.2774730000000 1.0  -0.02
Li     1 -0.0877680000000 -0.1410710000000  0.3316860000000 1.0  -0.02
Li     1 -0.0877680000000 -0.1410710000000 -0.3316860000000 1.0  -0.02
Li     1 -0.1354070000000  0.0700180000000  0.1203920000000 1.0  -0.01
Li     1 -0.1354070000000  0.0700180000000 -0.1203920000000 1.0  -0.01
Li     1 -0.0302000000000 -0.3945100000000  0.3652080000000 1.0  -0.01
Li     1 -0.0302000000000 -0.3945100000000 -0.3652080000000 1.0  -0.01
O      2  0.4368660000000 -0.2653270000000 -0.3343680000000 1.0   0.01
O      2  0.4368660000000 -0.2653270000000  0.3343680000000 1.0   0.01
O      2 -0.0243950000000  0.4251000000000  0.2976100000000 1.0   0.10
O      2 -0.0243950000000  0.4251000000000 -0.2976100000000 1.0   0.10
O      2 -0.0895300000000 -0.0034520000000 -0.2303210000000 1.0   0.06
O      2 -0.0895300000000 -0.0034520000000  0.2303210000000 1.0   0.06
S      3  0.3495770000000  0.2288440000000 -0.0636300000000 1.0   0.05
S      3  0.3495770000000  0.2288440000000  0.0636300000000 1.0   0.05
Fe     4 -0.0294670000000  0.2138280000000  0.2649490000000 1.0   3.60
Fe     4 -0.0294670000000  0.2138280000000 -0.2649490000000 1.0   3.60
END
