TITL LFSO-Li5FeS2O2-201025-110035-2a210a 0.1437 155.387296 -3.34459176E+003 3.55152 4.05177 10 (P-1) n - 1
REM
REM Run started: Sun, 25 Oct 2020 19:34:21 +0000 in /scratch/scratch/uccabz1/launch_tmp/launcher_2020-10-25-11-00-33-920434
REM CASTEP 19.11| from code version Version unavailable
REM Functional Perdew Burke Ernzerhof Relativity Koelling-Harmon Dispersion off
REM Cut-off 340.0000 eV Grid scale 1.7500 Gmax 16.5316 1/A FBSC none
REM MP grid 5 4 2 Offset 0.000 0.000 0.000 No. kpts 20 Spacing 0.07
REM Total runtime: 33924.9 s
REM Overall efficiency: 85.1667 %
REM
REM
REM
REM compiler GCC version 4.9.2
REM options -cpp -iprefix /scratch/UCL/applications/gcc/4.9.2/bin/../lib/gcc/x86_64-unknown-linux-gnu/4.9.2/ -mtune=corei7 -march=x86-64 -g -O2
REM COMMAND_LINE
REM seed -893412932 931046963 -17354105 -1067869461 1349160813 1752036426 -55014081 -306406421 -1104874577 -1591366037 -893461464 -484609707
REM
REM S 3|1.8|5|6|7|30:31:32(qc=5)
REM O 2|1.5|12|13|15|20:21(qc=5)
REM Li 1|1.3|8|9|10|10U:20(qc=5)
REM Fe 3|2.2|2.0|1.0|8|9|10|40:41:32(qc=5)
REM Fe d:4.0 
REM
CELL 1.54180    3.36038    3.66195   12.62830   90.59132   89.71375   90.13224
LATT -1
SFAC Li O  S  Fe 
Li     1 -0.4728570000000  0.4729790000000  0.2986140000000 1.0  -0.04
Li     1  0.4728570000000 -0.4729790000000 -0.2986140000000 1.0  -0.04
Li     1 -0.0263570000000  0.0267680000000 -0.2687500000000 1.0   0.02
Li     1  0.0263570000000 -0.0267680000000  0.2687500000000 1.0   0.02
Li     1  0.0000000000000  0.0000000000000  0.0000000000000 1.0   0.01
O      2 -0.4779230000000 -0.0210800000000  0.3540270000000 1.0   0.07
O      2  0.4779230000000  0.0210800000000 -0.3540270000000 1.0   0.07
S      3  0.0237790000000  0.4757400000000  0.1465860000000 1.0  -0.10
S      3 -0.0237790000000 -0.4757400000000 -0.1465860000000 1.0  -0.10
Fe     4 -0.5000000000000  0.0000000000000 -0.5000000000000 1.0   3.66
END
