TITL LFSO-Li5FeS2O2-201025-221340-b5c2ee -0.0310 151.280765 -3.34117816E+003 4.82446 4.89525 10 (R3) n - 1
REM
REM Run started: Mon, 26 Oct 2020 01:11:36 +0000 in /lustre/scratch/uccabz1/launch_tmp/launcher_2020-10-25-22-13-38-564434
REM CASTEP 20.1 from code version af48c487+ pr-geom-scf-spinfix Tue Jun 2 15:39:59 2020 +0100
REM Functional Perdew Burke Ernzerhof Relativity Koelling-Harmon Dispersion off
REM Cut-off 340.0000 eV Grid scale 1.7500 Gmax 16.5316 1/A FBSC none
REM MP grid 4 4 3 Offset 0.000 0.000 0.000 No. kpts 24 Spacing 0.07
REM Total runtime: 12030.2 s
REM Overall efficiency: 95.3846 %
REM
REM
REM
REM compiler GCC version 4.9.2
REM options -cpp -iprefix /lustre/shared/ucl/apps/gcc/4.9.2/bin/../lib/gcc/x86_64-unknown-linux-gnu/4.9.2/ -mtune=corei7 -march=x86-64 -g -Og
REM COMMAND_LINE
REM seed -1914815780 -1782127639 -1859455256 -1756543816 -1680811711 -1220121409 -299141482 -977017769 -1408944948 -1377815036 302641165 -624256552
REM
REM S 3|1.8|5|6|7|30:31:32(qc=5)
REM O 2|1.5|12|13|15|20:21(qc=5)
REM Li 1|1.3|8|9|10|10U:20(qc=5)
REM Fe 3|2.2|2.0|1.0|8|9|10|40:41:32(qc=5)
REM Fe d:4.0 
REM
CELL 1.54180    5.51906    5.51906    6.56064   65.12630   65.12630   60.00000
LATT -1
SFAC Li O  S  Fe 
Li     1  0.2433710000000 -0.0839300000000 -0.5882360000000 1.0  -0.01
Li     1 -0.0839300000000  0.4287950000000 -0.5882360000000 1.0  -0.01
Li     1  0.4287950000000  0.2433710000000 -0.5882360000000 1.0  -0.01
Li     1 -0.3928010000000 -0.3928010000000  1.1784030000000 1.0  -0.02
Li     1 -0.2290950000000 -0.2290950000000  0.6872860000000 1.0  -0.05
O      2 -0.5007190000000 -0.5007190000000  1.5021570000000 1.0   0.19
O      2  0.2869660000000  0.2869660000000 -0.8608970000000 1.0   0.33
S      3  0.0815930000000  0.0815930000000 -0.2447790000000 1.0   0.31
S      3 -0.1012720000000 -0.1012720000000  0.3038170000000 1.0   0.13
Fe     4  0.3912090000000  0.3912090000000 -1.1736280000000 1.0   3.95
END
