TITL LFSO-Li5FeSO3-201026-214730-a74ff2 -0.0136 203.683085 -3.47683382E+003 4.99987 5.05059 10 (R3) n - 1
REM
REM Run started: Mon, 26 Oct 2020 23:59:00 +0000 in /lustre/scratch/uccabz1/launch_tmp/launcher_2020-10-26-21-47-28-677349
REM CASTEP 20.1 from code version af48c487+ pr-geom-scf-spinfix Tue Jun 2 15:39:59 2020 +0100
REM Functional Perdew Burke Ernzerhof Relativity Koelling-Harmon Dispersion off
REM Cut-off 340.0000 eV Grid scale 1.7500 Gmax 16.5316 1/A FBSC none
REM MP grid 3 3 3 Offset 0.000 0.000 0.000 No. kpts 6 Spacing 0.07
REM Total runtime: 8755.6 s
REM Overall efficiency: 94.7273 %
REM
REM
REM
REM compiler GCC version 4.9.2
REM options -cpp -iprefix /lustre/shared/ucl/apps/gcc/4.9.2/bin/../lib/gcc/x86_64-unknown-linux-gnu/4.9.2/ -mtune=corei7 -march=x86-64 -g -Og
REM COMMAND_LINE
REM seed -632801997 1906752375 -1643215759 -1469644327 -157257231 -1333733189 -1135700342 -191223311 2106409267 -403205323 -734858494 -1685701434
REM
REM S 3|1.8|5|6|7|30:31:32(qc=5)
REM O 2|1.5|12|13|15|20:21(qc=5)
REM Li 1|1.3|8|9|10|10U:20(qc=5)
REM Fe 3|2.2|2.0|1.0|8|9|10|40:41:32(qc=5)
REM Fe d:4.0 
REM
CELL 1.54180    7.79195    7.79195    7.79195   43.53712   43.53712   43.53712
LATT -1
SFAC Li O  S  Fe 
Li     1 -0.0430320000000  0.5378490000000 -0.4841670000000 1.0  -0.02
Li     1  0.5378490000000 -0.4841670000000 -0.0430320000000 1.0  -0.02
Li     1 -0.4841670000000 -0.0430320000000  0.5378490000000 1.0  -0.02
Li     1 -0.0109740000000 -0.0109740000000 -0.0109740000000 1.0   0.05
Li     1 -0.1160040000000 -0.1160040000000 -0.1160040000000 1.0  -0.03
O      2 -0.2360220000000 -0.2067970000000  0.2855170000000 1.0   0.32
O      2 -0.2067970000000  0.2855170000000 -0.2360220000000 1.0   0.32
O      2  0.2855170000000 -0.2360220000000 -0.2067970000000 1.0   0.32
S      3 -0.2385230000000 -0.2385230000000 -0.2385230000000 1.0   0.04
Fe     4 -0.4265000000000 -0.4265000000000 -0.4265000000000 1.0   4.05
END
