TITL LFSO-Li4Fe3S3O2-201028-231032-bb5e89 -0.0090 577.067183 -1.03463988E+004 24.0000 24.4726 24 (P21) n - 1
REM
REM Run started: Fri, 30 Oct 2020 01:21:40 +0000 in /lustre/scratch/uccabz1/launch_tmp/launcher_2020-10-28-23-10-29-969409
REM CASTEP 20.1 from code version af48c487+ pr-geom-scf-spinfix Tue Jun 2 15:39:59 2020 +0100
REM Functional Perdew Burke Ernzerhof Relativity Koelling-Harmon Dispersion off
REM Cut-off 340.0000 eV Grid scale 1.7500 Gmax 16.5316 1/A FBSC none
REM MP grid 3 3 3 Offset 0.000 0.000 0.000 No. kpts 10 Spacing 0.07
REM Total runtime: 110370 s
REM Overall efficiency: 85.25 %
REM
REM
REM
REM compiler GCC version 4.9.2
REM options -cpp -iprefix /lustre/shared/ucl/apps/gcc/4.9.2/bin/../lib/gcc/x86_64-unknown-linux-gnu/4.9.2/ -mtune=corei7 -march=x86-64 -g -Og
REM COMMAND_LINE
REM seed 1413793489 -596786860 264053701 -1789769886 -1481061154 2059585827 -895313437 -1862896077 -746735723 2044484687 789870292 1653153323
REM
REM S 3|1.8|5|6|7|30:31:32(qc=5)
REM O 2|1.5|12|13|15|20:21(qc=5)
REM Li 1|1.3|8|9|10|10U:20(qc=5)
REM Fe 3|2.2|2.0|1.0|8|9|10|40:41:32(qc=5)
REM Fe d:4.0 
REM
CELL 1.54180    5.88383   14.93674   19.04809  159.83566   90.00000   90.00000
LATT -1
SFAC Li O  S  Fe 
Li     1 -0.2649920000000 -0.4498690000000  0.2296490000000 1.0  -0.03
Li     1  0.2350080000000  0.4498690000000 -0.2296490000000 1.0  -0.03
Li     1 -0.1707510000000 -0.0649950000000 -0.4163660000000 1.0  -0.03
Li     1  0.3292490000000  0.0649950000000  0.4163660000000 1.0  -0.03
Li     1  0.3238860000000 -0.2595460000000 -0.5638580000000 1.0   0.01
Li     1 -0.1761140000000  0.2595460000000  0.5638580000000 1.0   0.01
Li     1 -0.0811640000000 -0.0747760000000  0.0571830000000 1.0  -0.02
Li     1  0.4188360000000  0.0747760000000 -0.0571830000000 1.0  -0.02
O      2 -0.4332570000000  0.1073920000000 -0.4892760000000 1.0   0.15
O      2  0.0667430000000 -0.1073920000000  0.4892760000000 1.0   0.15
O      2 -0.4177930000000 -0.1412510000000  0.4658570000000 1.0   0.14
O      2  0.0822070000000  0.1412510000000 -0.4658570000000 1.0   0.14
S      3 -0.2034610000000 -0.3982980000000 -0.2656860000000 1.0   0.15
S      3  0.2965390000000  0.3982980000000  0.2656860000000 1.0   0.15
S      3 -0.1928180000000  0.1311390000000 -0.0431330000000 1.0   0.09
S      3  0.3071820000000 -0.1311390000000  0.0431330000000 1.0   0.09
S      3  0.2901570000000 -0.3480460000000 -0.3426360000000 1.0   0.11
S      3 -0.2098430000000  0.3480460000000  0.3426360000000 1.0   0.11
Fe     4  0.3860360000000  0.3057530000000  0.3234260000000 1.0   3.87
Fe     4 -0.1139640000000 -0.3057530000000 -0.3234260000000 1.0   3.87
Fe     4 -0.1697260000000  0.0045940000000 -0.5027680000000 1.0   3.76
Fe     4  0.3302740000000 -0.0045940000000  0.5027680000000 1.0   3.76
Fe     4 -0.0839130000000  0.2871040000000  0.1826550000000 1.0   3.80
Fe     4  0.4160870000000 -0.2871040000000 -0.1826550000000 1.0   3.80
END
