TITL LFSO-Li4Fe2S3O-201027-005639-d5a20d 0.0354 363.424943 -7.74150016E+003 14.6611 15.1546 20 (Ima2) n - 1
REM
REM Run started: Tue, 27 Oct 2020 02:37:33 +0000 in /lustre/scratch/uccabz1/launch_tmp/launcher_2020-10-27-00-56-37-495423
REM CASTEP 20.1 from code version af48c487+ pr-geom-scf-spinfix Tue Jun 2 15:39:59 2020 +0100
REM Functional Perdew Burke Ernzerhof Relativity Koelling-Harmon Dispersion off
REM Cut-off 340.0000 eV Grid scale 1.7500 Gmax 16.5316 1/A FBSC none
REM MP grid 3 2 3 Offset 0.000 0.000 0.000 No. kpts 6 Spacing 0.07
REM Total runtime: 6105.22 s
REM Overall efficiency: 76.25 %
REM
REM
REM
REM compiler GCC version 4.9.2
REM options -cpp -iprefix /lustre/shared/ucl/apps/gcc/4.9.2/bin/../lib/gcc/x86_64-unknown-linux-gnu/4.9.2/ -mtune=corei7 -march=x86-64 -g -Og
REM COMMAND_LINE
REM seed 2086577613 -792533935 586345486 1472614008 1891606684 552094795 -2012650781 1890866594 -1632293367 -1955412276 256031802 1085635605
REM
REM S 3|1.8|5|6|7|30:31:32(qc=5)
REM O 2|1.5|12|13|15|20:21(qc=5)
REM Li 1|1.3|8|9|10|10U:20(qc=5)
REM Fe 3|2.2|2.0|1.0|8|9|10|40:41:32(qc=5)
REM Fe d:4.0 
REM
CELL 1.54180    6.41945    9.48062    8.27231  124.96196  112.83063   90.00000
LATT -1
SFAC Li O  S  Fe 
Li     1  0.4277540000000  0.1971820000000 -0.2075910000000 1.0  -0.03
Li     1 -0.4277550000000  0.4047730000000  0.2075910000000 1.0  -0.03
Li     1  0.1353450000000  0.4047730000000  0.2075910000000 1.0  -0.03
Li     1 -0.1353460000000  0.1971820000000 -0.2075910000000 1.0  -0.03
Li     1 -0.1273780000000 -0.2641210000000 -0.2520440000000 1.0  -0.01
Li     1  0.1273780000000 -0.0120770000000  0.2520440000000 1.0  -0.01
Li     1 -0.3753340000000 -0.0120770000000  0.2520440000000 1.0  -0.01
Li     1  0.3753340000000 -0.2641210000000 -0.2520440000000 1.0  -0.01
O      2 -0.2891950000000  0.3701330000000 -0.0783900000000 1.0   0.10
O      2  0.2891950000000  0.4485220000000  0.0783890000000 1.0   0.10
S      3  0.1955600000000  0.2903090000000  0.4039830000000 1.0   0.09
S      3 -0.1955600000000 -0.1136740000000 -0.4039840000000 1.0   0.09
S      3  0.2915760000000 -0.1136740000000 -0.4039840000000 1.0   0.09
S      3 -0.2915760000000  0.2903090000000  0.4039830000000 1.0   0.09
S      3  0.2334460000000 -0.2820530000000 -0.0331080000000 1.0   0.11
S      3 -0.2334460000000 -0.2489460000000  0.0331080000000 1.0   0.11
Fe     4  0.1385750000000 -0.3131840000000  0.2169040000000 1.0   3.51
Fe     4 -0.1385750000000  0.4699120000000 -0.2169040000000 1.0   3.51
Fe     4  0.4216710000000  0.4699120000000 -0.2169040000000 1.0   3.51
Fe     4 -0.4216710000000 -0.3131840000000  0.2169040000000 1.0   3.51
END
