TITL LFSO-Li4Fe3S3O2-201029-174500-f4e0ed -0.0780 225.951218 -5.16994158E+003 9.99954 10.6562 12 (C2/m) n - 1
REM
REM Run started: Thu, 29 Oct 2020 20:34:18 +0000 in /scratch/scratch/uccabz1/launch_tmp/launcher_2020-10-29-17-44-59-075956
REM CASTEP 19.11| from code version Version unavailable
REM Functional Perdew Burke Ernzerhof Relativity Koelling-Harmon Dispersion off
REM Cut-off 340.0000 eV Grid scale 1.7500 Gmax 16.5316 1/A FBSC none
REM MP grid 5 2 3 Offset 0.000 0.000 0.000 No. kpts 15 Spacing 0.07
REM Total runtime: 11757 s
REM Overall efficiency: 79.75 %
REM
REM
REM
REM compiler GCC version 4.9.2
REM options -cpp -iprefix /scratch/UCL/applications/gcc/4.9.2/bin/../lib/gcc/x86_64-unknown-linux-gnu/4.9.2/ -mtune=corei7 -march=x86-64 -g -O2
REM COMMAND_LINE
REM seed 1010134178 2119872919 -1875202497 -1278627935 -1818077302 -1671753915 1467792903 350490955 -1254555527 728719261 -2017918119 532393186
REM
REM S 3|1.8|5|6|7|30:31:32(qc=5)
REM O 2|1.5|12|13|15|20:21(qc=5)
REM Li 1|1.3|8|9|10|10U:20(qc=5)
REM Fe 3|2.2|2.0|1.0|8|9|10|40:41:32(qc=5)
REM Fe d:4.0 
REM
CELL 1.54180    3.68279   11.57357    8.47034   46.90730  110.61063  121.01479
LATT -1
SFAC Li O  S  Fe 
Li     1  0.1960530000000  0.0632470000000  0.2080710000000 1.0  -0.07
Li     1 -0.1960530000000 -0.2713180000000  0.2080710000000 1.0  -0.07
Li     1 -0.1960530000000 -0.0632470000000 -0.2080710000000 1.0  -0.07
Li     1  0.1960530000000  0.2713170000000 -0.2080710000000 1.0  -0.07
O      2  0.5000000000000 -0.3384030000000 -0.3231940000000 1.0   0.07
O      2 -0.5000000000000  0.3384030000000  0.3231950000000 1.0   0.07
S      3 -0.1586290000000  0.2571980000000  0.0000000000000 1.0   0.05
S      3  0.1586290000000 -0.2571990000000  0.0000000000000 1.0   0.05
S      3 -0.5000000000000 -0.0000000000000  0.0000000000000 1.0  -0.00
Fe     4  0.0000000000000 -0.3170010000000  0.6340030000000 1.0   3.22
Fe     4  0.0000000000000  0.3170010000000 -0.6340020000000 1.0   3.22
Fe     4  0.5000000000000 -0.5000000000000  0.0000000000000 1.0   3.60
END
