TITL LFSO-LiFe3S4O-201028-170321-dd7192 -0.0585 337.344753 -8.87651056E+003 22.0039 22.9132 18 (C2) n - 1
REM
REM Run started: Wed, 28 Oct 2020 21:55:02 +0000 in /lustre/scratch/uccabz1/launch_tmp/launcher_2020-10-28-17-03-19-620667
REM CASTEP 20.1 from code version af48c487+ pr-geom-scf-spinfix Tue Jun 2 15:39:59 2020 +0100
REM Functional Perdew Burke Ernzerhof Relativity Koelling-Harmon Dispersion off
REM Cut-off 340.0000 eV Grid scale 1.7500 Gmax 16.5316 1/A FBSC none
REM MP grid 3 3 2 Offset 0.000 0.000 0.000 No. kpts 6 Spacing 0.07
REM Total runtime: 18455.7 s
REM Overall efficiency: 76.4 %
REM
REM
REM
REM compiler GCC version 4.9.2
REM options -cpp -iprefix /lustre/shared/ucl/apps/gcc/4.9.2/bin/../lib/gcc/x86_64-unknown-linux-gnu/4.9.2/ -mtune=corei7 -march=x86-64 -g -Og
REM COMMAND_LINE
REM seed -4438240 1819382748 -564045471 -464927372 338735901 585184570 315953225 -2121560245 69656468 1277566682 777494476 -650865068
REM
REM S 3|1.8|5|6|7|30:31:32(qc=5)
REM O 2|1.5|12|13|15|20:21(qc=5)
REM Li 1|1.3|8|9|10|10U:20(qc=5)
REM Fe 3|2.2|2.0|1.0|8|9|10|40:41:32(qc=5)
REM Fe d:4.0 
REM
CELL 1.54180    7.78801    7.78801    8.33779   77.24385   77.24385   43.37238
LATT -1
SFAC Li O  S  Fe 
Li     1  0.3806170000000  0.3278380000000  0.1290610000000 1.0  -0.05
Li     1 -0.3278380000000 -0.3806170000000 -0.1290610000000 1.0  -0.05
O      2  0.1210230000000  0.4412720000000  0.0185270000000 1.0   0.14
O      2 -0.4412720000000 -0.1210230000000 -0.0185270000000 1.0   0.14
S      3  0.3264240000000 -0.2860170000000 -0.2266770000000 1.0  -0.03
S      3  0.2860170000000 -0.3264240000000  0.2266770000000 1.0  -0.03
S      3 -0.0652990000000 -0.1032680000000  0.1464230000000 1.0  -0.12
S      3  0.1032680000000  0.0652990000000 -0.1464230000000 1.0  -0.12
S      3 -0.4970600000000 -0.0171800000000  0.3621880000000 1.0  -0.04
S      3  0.0171800000000  0.4970600000000 -0.3621880000000 1.0  -0.04
S      3 -0.3083170000000  0.1344670000000 -0.3172580000000 1.0  -0.02
S      3 -0.1344670000000  0.3083170000000  0.3172580000000 1.0  -0.02
Fe     4 -0.1695450000000 -0.3489290000000  0.1865460000000 1.0   3.66
Fe     4  0.3489290000000  0.1695450000000 -0.1865460000000 1.0   3.66
Fe     4 -0.0144010000000 -0.2738750000000 -0.1567940000000 1.0   3.78
Fe     4  0.2738750000000  0.0144010000000  0.1567940000000 1.0   3.78
Fe     4 -0.2516240000000  0.0477530000000  0.4097140000000 1.0   3.69
Fe     4 -0.0477530000000  0.2516240000000 -0.4097140000000 1.0   3.69
END
