TITL LFSO-Li2Fe4S4O-201023-041613-a72793 -0.0266 286.577863 -5.50021926E+003 15.9999 16.2632 11 (Cmm2) n - 1
REM
REM Run started: Fri, 23 Oct 2020 05:39:04 +0100 in /lustre/scratch/uccabz1/launch_tmp/launcher_2020-10-23-03-16-11-029756
REM CASTEP 20.1 from code version af48c487+ pr-geom-scf-spinfix Tue Jun 2 15:39:59 2020 +0100
REM Functional Perdew Burke Ernzerhof Relativity Koelling-Harmon Dispersion off
REM Cut-off 340.0000 eV Grid scale 1.7500 Gmax 16.5316 1/A FBSC none
REM MP grid 4 2 2 Offset 0.000 0.000 0.000 No. kpts 4 Spacing 0.07
REM Total runtime: 5844.02 s
REM Overall efficiency: 90 %
REM
REM
REM
REM compiler GCC version 4.9.2
REM options -cpp -iprefix /lustre/shared/ucl/apps/gcc/4.9.2/bin/../lib/gcc/x86_64-unknown-linux-gnu/4.9.2/ -mtune=corei7 -march=x86-64 -g -Og
REM COMMAND_LINE
REM seed -1153172535 79644849 -796067970 -1099390866 274062842 360476698 1601122833 -1831703439 -494603199 -866750386 1154208927 -1807932124
REM
REM S 3|1.8|5|6|7|30:31:32(qc=5)
REM O 2|1.5|12|13|15|20:21(qc=5)
REM Li 1|1.3|8|9|10|10U:20(qc=5)
REM Fe 3|2.2|2.0|1.0|8|9|10|40:41:32(qc=5)
REM Fe d:4.0 
REM
CELL 1.54180    3.69406    9.87709    9.87709  127.32508   90.00000   90.00000
LATT -1
SFAC Li O  S  Fe 
Li     1  0.0787360000000  0.3657210000000 -0.3657210000000 1.0  -0.00
Li     1  0.0787360000000 -0.3657210000000  0.3657210000000 1.0  -0.00
O      2  0.1739110000000  0.0000000000000  0.0000000000000 1.0   0.21
S      3 -0.3557230000000  0.4139120000000  0.1475550000000 1.0   0.17
S      3 -0.3557230000000 -0.4139120000000 -0.1475550000000 1.0   0.17
S      3 -0.3557230000000  0.1475550000000  0.4139120000000 1.0   0.17
S      3 -0.3557230000000 -0.1475550000000 -0.4139120000000 1.0   0.17
Fe     4  0.1364450000000  0.2454910000000  0.0781930000000 1.0   3.78
Fe     4  0.1364450000000 -0.2454910000000 -0.0781930000000 1.0   3.78
Fe     4  0.1364450000000  0.0781930000000  0.2454910000000 1.0   3.78
Fe     4  0.1364450000000 -0.0781930000000 -0.2454910000000 1.0   3.78
END
