TITL LFSO-Li2Fe4S3O2-201025-212119-57d6f8 -0.0578 454.523817 -1.12716319E+004 32.0000 32.2529 22 (C2) n - 1
REM
REM Run started: Wed, 28 Oct 2020 01:26:22 +0000 in /scratch/scratch/uccabz1/launch_tmp/launcher_2020-10-28-00-06-47-179737
REM CASTEP 19.11| from code version Version unavailable
REM Functional Perdew Burke Ernzerhof Relativity Koelling-Harmon Dispersion off
REM Cut-off 340.0000 eV Grid scale 1.7500 Gmax 16.5316 1/A FBSC none
REM MP grid 3 3 2 Offset 0.000 0.000 0.000 No. kpts 6 Spacing 0.07
REM Total runtime: 68130.9 s
REM Overall efficiency: 87.7 %
REM
REM
REM
REM compiler GCC version 4.9.2
REM options -cpp -iprefix /scratch/UCL/applications/gcc/4.9.2/bin/../lib/gcc/x86_64-unknown-linux-gnu/4.9.2/ -mtune=corei7 -march=x86-64 -g -O2
REM COMMAND_LINE
REM seed -27107231 1384046123 -861174623 1235567063 1045122827 1208394307 1046481423 1488632926 -661721156 554891100 1292543340 -204678617
REM
REM S 3|1.8|5|6|7|30:31:32(qc=5)
REM O 2|1.5|12|13|15|20:21(qc=5)
REM Li 1|1.3|8|9|10|10U:20(qc=5)
REM Fe 3|2.2|2.0|1.0|8|9|10|40:41:32(qc=5)
REM Fe d:4.0 
REM
CELL 1.54180    6.07579    6.86295   13.88660  115.68822   90.00000  116.27316
LATT -1
SFAC Li O  S  Fe 
Li     1 -0.1961970000000 -0.2330420000000  0.0487180000000 1.0  -0.04
Li     1  0.0368440000000  0.2330400000000 -0.0487180000000 1.0  -0.04
Li     1 -0.3744920000000  0.2249670000000 -0.4545530000000 1.0  -0.02
Li     1  0.4005390000000 -0.2249690000000  0.4545530000000 1.0  -0.02
O      2 -0.1210220000000 -0.2942290000000 -0.0858960000000 1.0   0.23
O      2  0.1732050000000  0.2942270000000  0.0858960000000 1.0   0.23
O      2 -0.4707020000000 -0.0032860000000  0.3923940000000 1.0   0.17
O      2 -0.4674170000000  0.0032840000000 -0.3923940000000 1.0   0.17
S      3 -0.1139850000000 -0.3384700000000  0.2068520000000 1.0   0.10
S      3  0.2244840000000  0.3384680000000 -0.2068520000000 1.0   0.10
S      3  0.1913580000000  0.3294800000000  0.3524520000000 1.0   0.12
S      3 -0.1381230000000 -0.3294820000000 -0.3524520000000 1.0   0.12
S      3  0.5534670000000  0.0199250000000 -0.1267150000000 1.0   0.12
S      3 -0.4664590000000 -0.0199270000000  0.1267150000000 1.0   0.12
Fe     4 -0.1721080000000  0.0168270000000 -0.3327630000000 1.0   3.80
Fe     4 -0.1889350000000 -0.0168290000000  0.3327630000000 1.0   3.80
Fe     4 -0.3365320000000 -0.3283600000000 -0.1996420000000 1.0   3.87
Fe     4 -0.0081730000000  0.3283580000000  0.1996420000000 1.0   3.87
Fe     4  0.4747420000000  0.2963130000000  0.1189210000000 1.0   3.80
Fe     4  0.1784280000000 -0.2963150000000 -0.1189210000000 1.0   3.80
Fe     4  0.3485710000000  0.0217490000000  0.2828880000000 1.0   3.87
Fe     4  0.3268210000000 -0.0217510000000 -0.2828880000000 1.0   3.87
END
