TITL LFSO-Li2Fe4S4O-201024-163111-f0c9dd -0.0146 248.583975 -5.49850864E+003 15.9997 16.1910 11 (Fmmm) n - 1
REM
REM Run started: Sat, 24 Oct 2020 21:53:04 +0100 in /lustre/scratch/uccabz1/launch_tmp/launcher_2020-10-24-15-31-09-201658
REM CASTEP 20.1 from code version af48c487+ pr-geom-scf-spinfix Tue Jun 2 15:39:59 2020 +0100
REM Functional Perdew Burke Ernzerhof Relativity Koelling-Harmon Dispersion off
REM Cut-off 340.0000 eV Grid scale 1.7500 Gmax 16.5316 1/A FBSC none
REM MP grid 3 3 3 Offset 0.000 0.000 0.000 No. kpts 8 Spacing 0.07
REM Total runtime: 21532.5 s
REM Overall efficiency: 95.1667 %
REM
REM
REM
REM compiler GCC version 4.9.2
REM options -cpp -iprefix /lustre/shared/ucl/apps/gcc/4.9.2/bin/../lib/gcc/x86_64-unknown-linux-gnu/4.9.2/ -mtune=corei7 -march=x86-64 -g -Og
REM COMMAND_LINE
REM seed 553837406 690252576 -1040090137 -741019417 937957818 1772345417 1289595070 -1379757400 131156589 835038610 1548375078 1976540672
REM
REM S 3|1.8|5|6|7|30:31:32(qc=5)
REM O 2|1.5|12|13|15|20:21(qc=5)
REM Li 1|1.3|8|9|10|10U:20(qc=5)
REM Fe 3|2.2|2.0|1.0|8|9|10|40:41:32(qc=5)
REM Fe d:4.0 
REM
CELL 1.54180    7.59905    7.59905    6.70893   99.77665   99.77665  134.44027
LATT -1
SFAC Li O  S  Fe 
Li     1 -0.2412820000000 -0.2412820000000  0.5174360000000 1.0   0.00
Li     1  0.2412820000000  0.2412820000000 -0.5174360000000 1.0   0.00
O      2  0.5000000000000 -0.5000000000000 -0.0000000000000 1.0   0.17
S      3  0.0019000000000  0.2903940000000  0.2926500000000 1.0   0.20
S      3  0.2907500000000  0.0022560000000  0.2926500000000 1.0   0.20
S      3 -0.0022560000000 -0.2907500000000 -0.2926500000000 1.0   0.20
S      3 -0.2903940000000 -0.0019000000000 -0.2926500000000 1.0   0.20
Fe     4  0.3450440000000  0.1364900000000  0.0002470000000 1.0   3.75
Fe     4 -0.3447970000000 -0.1362420000000  0.0002470000000 1.0   3.75
Fe     4  0.1362420000000  0.3447970000000 -0.0002470000000 1.0   3.75
Fe     4 -0.1364900000000 -0.3450440000000 -0.0002470000000 1.0   3.75
END
