TITL LFSO-Li2Fe3S2O2-201024-031531-c39aa7 -0.0022 264.796583 -8.94025849E+003 24.0000 24.1750 18 (P21/c) n - 1
REM
REM Run started: Sat, 24 Oct 2020 05:15:31 +0100 in /lustre/scratch/uccabz1/launch_tmp/launcher_2020-10-24-02-15-29-433588
REM CASTEP 20.1 from code version af48c487+ pr-geom-scf-spinfix Tue Jun 2 15:39:59 2020 +0100
REM Functional Perdew Burke Ernzerhof Relativity Koelling-Harmon Dispersion off
REM Cut-off 340.0000 eV Grid scale 1.7500 Gmax 16.5316 1/A FBSC none
REM MP grid 3 3 2 Offset 0.000 0.000 0.000 No. kpts 6 Spacing 0.07
REM Total runtime: 8066.7 s
REM Overall efficiency: 75.1429 %
REM
REM
REM
REM compiler GCC version 4.9.2
REM options -cpp -iprefix /lustre/shared/ucl/apps/gcc/4.9.2/bin/../lib/gcc/x86_64-unknown-linux-gnu/4.9.2/ -mtune=corei7 -march=x86-64 -g -Og
REM COMMAND_LINE
REM seed 1548448577 -1317855364 -1428616315 383993648 -1619480482 1318131589 -1135816194 -2112939226 -771951819 -1318315484 -434475023 -1597833657
REM
REM S 3|1.8|5|6|7|30:31:32(qc=5)
REM O 2|1.5|12|13|15|20:21(qc=5)
REM Li 1|1.3|8|9|10|10U:20(qc=5)
REM Fe 3|2.2|2.0|1.0|8|9|10|40:41:32(qc=5)
REM Fe d:4.0 
REM
CELL 1.54180    5.91670    6.12428    7.34216   90.00000   84.44259   90.00000
LATT -1
SFAC Li O  S  Fe 
Li     1 -0.3319170000000 -0.4887150000000 -0.4132180000000 1.0  -0.08
Li     1  0.3319170000000  0.0112850000000 -0.0867820000000 1.0  -0.08
Li     1  0.3319170000000  0.4887150000000  0.4132180000000 1.0  -0.08
Li     1 -0.3319170000000 -0.0112850000000  0.0867820000000 1.0  -0.08
O      2 -0.2268710000000 -0.2146970000000  0.4920210000000 1.0   0.16
O      2  0.2268710000000  0.2853030000000  0.0079790000000 1.0   0.16
O      2  0.2268710000000  0.2146970000000 -0.4920210000000 1.0   0.16
O      2 -0.2268710000000 -0.2853030000000 -0.0079790000000 1.0   0.16
S      3 -0.2914280000000  0.1896880000000 -0.2174070000000 1.0   0.12
S      3  0.2914280000000 -0.3103120000000 -0.2825930000000 1.0   0.12
S      3  0.2914280000000 -0.1896880000000  0.2174070000000 1.0   0.12
S      3 -0.2914280000000  0.3103120000000  0.2825930000000 1.0   0.12
Fe     4  0.0998810000000  0.1811790000000  0.2598420000000 1.0   3.85
Fe     4 -0.0998810000000 -0.3188210000000  0.2401580000000 1.0   3.85
Fe     4 -0.0998810000000 -0.1811790000000 -0.2598420000000 1.0   3.85
Fe     4  0.0998810000000  0.3188210000000 -0.2401580000000 1.0   3.85
Fe     4 -0.5000000000000  0.0000000000000 -0.5000000000000 1.0   3.89
Fe     4  0.5000000000000 -0.5000000000000 -0.0000000000000 1.0   3.89
END
