TITL LFSO-Li2Fe4S4O-201025-015001-714d2a 0.2614 308.583700 -5.50068335E+003 15.9999 16.3285 11 (R3) n - 1
REM
REM Run started: Sun, 25 Oct 2020 11:08:06 +0000 in /scratch/scratch/uccabz1/launch_tmp/launcher_2020-10-25-01-49-59-594821
REM CASTEP 19.11| from code version Version unavailable
REM Functional Perdew Burke Ernzerhof Relativity Koelling-Harmon Dispersion off
REM Cut-off 340.0000 eV Grid scale 1.7500 Gmax 16.5316 1/A FBSC none
REM MP grid 3 3 3 Offset 0.000 0.000 0.000 No. kpts 6 Spacing 0.07
REM Total runtime: 47145.1 s
REM Overall efficiency: 97.4167 %
REM
REM
REM
REM compiler GCC version 4.9.2
REM options -cpp -iprefix /scratch/UCL/applications/gcc/4.9.2/bin/../lib/gcc/x86_64-unknown-linux-gnu/4.9.2/ -mtune=corei7 -march=x86-64 -g -O2
REM COMMAND_LINE
REM seed 1482482181 663984385 1235410444 -1660926493 291210057 317134605 1011929917 -268828964 1719987241 1286368473 -439471324 279956417
REM
REM S 3|1.8|5|6|7|30:31:32(qc=5)
REM O 2|1.5|12|13|15|20:21(qc=5)
REM Li 1|1.3|8|9|10|10U:20(qc=5)
REM Fe 3|2.2|2.0|1.0|8|9|10|40:41:32(qc=5)
REM Fe d:4.0 
REM
CELL 1.54180    8.89449    8.89449    8.89449   44.01512   44.01512   44.01512
LATT -1
SFAC Li O  S  Fe 
Li     1  0.4598630000000  0.4598630000000  0.4598630000000 1.0  -0.04
Li     1  0.0761980000000  0.0761980000000  0.0761980000000 1.0   0.03
O      2 -0.0624230000000 -0.0624230000000 -0.0624230000000 1.0   0.24
S      3 -0.3030910000000  0.3962350000000  0.0599970000000 1.0   0.23
S      3  0.3962350000000  0.0599970000000 -0.3030910000000 1.0   0.23
S      3  0.0599970000000 -0.3030910000000  0.3962350000000 1.0   0.23
S      3 -0.4272110000000 -0.4272110000000 -0.4272110000000 1.0   0.07
Fe     4  0.2828720000000 -0.1471400000000  0.7460970000000 1.0   3.81
Fe     4 -0.1471400000000  0.7460970000000  0.2828720000000 1.0   3.81
Fe     4  0.7460970000000  0.2828720000000 -0.1471400000000 1.0   3.81
Fe     4  0.3529160000000  0.3529160000000  0.3529160000000 1.0   3.59
END
