TITL LFSO-Li4Fe3S3O2-201029-201338-49ce34 0.0672 198.747197 -5.16857435E+003 10.5305 10.8954 12 (Imm2) n - 1
REM
REM Run started: Fri, 30 Oct 2020 00:17:09 +0000 in /scratch/scratch/uccabz1/launch_tmp/launcher_2020-10-29-20-13-36-496235
REM CASTEP 19.11| from code version Version unavailable
REM Functional Perdew Burke Ernzerhof Relativity Koelling-Harmon Dispersion off
REM Cut-off 340.0000 eV Grid scale 1.7500 Gmax 16.5316 1/A FBSC none
REM MP grid 3 4 4 Offset 0.000 0.000 0.000 No. kpts 16 Spacing 0.07
REM Total runtime: 14712.8 s
REM Overall efficiency: 85.7273 %
REM
REM
REM
REM compiler GCC version 4.9.2
REM options -cpp -iprefix /scratch/UCL/applications/gcc/4.9.2/bin/../lib/gcc/x86_64-unknown-linux-gnu/4.9.2/ -mtune=corei7 -march=x86-64 -g -O2
REM COMMAND_LINE
REM seed -1886845920 -1810306214 917613585 416344868 392605058 960564109 -519024067 -40509325 -985618146 1314369554 1145608789 1364157390
REM
REM S 3|1.8|5|6|7|30:31:32(qc=5)
REM O 2|1.5|12|13|15|20:21(qc=5)
REM Li 1|1.3|8|9|10|10U:20(qc=5)
REM Fe 3|2.2|2.0|1.0|8|9|10|40:41:32(qc=5)
REM Fe d:4.0 
REM
CELL 1.54180   11.76949    7.19635    7.19635   43.33906   35.14075   35.14075
LATT -1
SFAC Li O  S  Fe 
Li     1 -0.6590390000000  0.5867800000000  0.0716740000000 1.0  -0.02
Li     1  0.0005850000000  0.0716740000000  0.5867800000000 1.0  -0.02
Li     1 -0.6590390000000  0.0716740000000  0.5867800000000 1.0  -0.02
Li     1  0.0005850000000  0.5867800000000  0.0716740000000 1.0  -0.02
O      2  0.1671690000000  0.2687850000000  0.2687850000000 1.0   0.05
O      2  0.2952610000000  0.2687850000000  0.2687850000000 1.0   0.05
S      3  0.3097470000000 -0.4894440000000 -0.4894440000000 1.0   0.07
S      3 -0.3308590000000 -0.4894440000000 -0.4894440000000 1.0   0.07
S      3 -0.0577300000000  0.0577300000000  0.0577300000000 1.0  -0.03
Fe     4  0.5528070000000 -0.3135110000000  0.2078970000000 1.0   3.38
Fe     4  0.5528070000000  0.2078970000000 -0.3135110000000 1.0   3.38
Fe     4 -0.0896640000000 -0.4103360000000 -0.4103360000000 1.0   3.66
END
