TITL LFSO-Li4Fe2S3O-201026-120316-ca8fb7 0.0124 160.807859 -3.87337761E+003 -8.00072 8.20443 10 (R3m) n - 1
REM
REM Run started: Mon, 26 Oct 2020 14:20:54 +0000 in /lustre/scratch/uccabz1/launch_tmp/launcher_2020-10-26-12-03-14-712669
REM CASTEP 20.1 from code version af48c487+ pr-geom-scf-spinfix Tue Jun 2 15:39:59 2020 +0100
REM Functional Perdew Burke Ernzerhof Relativity Koelling-Harmon Dispersion off
REM Cut-off 340.0000 eV Grid scale 1.7500 Gmax 16.5316 1/A FBSC none
REM MP grid 3 3 5 Offset 0.000 0.000 0.000 No. kpts 18 Spacing 0.07
REM Total runtime: 9380.85 s
REM Overall efficiency: 87.75 %
REM
REM
REM
REM compiler GCC version 4.9.2
REM options -cpp -iprefix /lustre/shared/ucl/apps/gcc/4.9.2/bin/../lib/gcc/x86_64-unknown-linux-gnu/4.9.2/ -mtune=corei7 -march=x86-64 -g -Og
REM COMMAND_LINE
REM seed -1694266977 -376594581 -1436992640 -1899750138 -1005663700 -1693095359 1778469905 -2051921007 -408711212 599867731 -1232122858 -1686205013
REM
REM S 3|1.8|5|6|7|30:31:32(qc=5)
REM O 2|1.5|12|13|15|20:21(qc=5)
REM Li 1|1.3|8|9|10|10U:20(qc=5)
REM Fe 3|2.2|2.0|1.0|8|9|10|40:41:32(qc=5)
REM Fe d:4.0 
REM
CELL 1.54180    7.74548    7.74548    5.43851   44.59426   44.59426   60.00000
LATT -1
SFAC Li O  S  Fe 
Li     1 -0.2824030000000 -0.2846080000000  0.2572510000000 1.0   0.07
Li     1 -0.2846080000000  0.3097600000000  0.2572510000000 1.0   0.07
Li     1  0.3097600000000 -0.2824030000000  0.2572510000000 1.0   0.07
Li     1 -0.2383610000000 -0.2383610000000 -0.2849180000000 1.0  -0.04
O      2 -0.4451060000000 -0.4451060000000  0.3353190000000 1.0  -0.07
S      3  0.0425830000000  0.0433710000000 -0.6292460000000 1.0  -0.10
S      3  0.0433710000000 -0.4567080000000 -0.6292460000000 1.0  -0.10
S      3 -0.4567080000000  0.0425830000000 -0.6292460000000 1.0  -0.10
Fe     4  0.0532670000000  0.0532670000000 -0.1598020000000 1.0  -3.92
Fe     4  0.3398230000000  0.3398230000000 -0.0194700000000 1.0  -3.86
END
