TITL LFSO-Li2Fe3S3O-201026-020016-07d1ab -0.0045 399.648707 -8.67062401E+003 24.0000 24.1535 18 (C2) n - 1
REM
REM Run started: Mon, 26 Oct 2020 15:10:08 +0000 in /lustre/scratch/uccabz1/launch_tmp/launcher_2020-10-26-02-00-14-798995
REM CASTEP 20.1 from code version af48c487+ pr-geom-scf-spinfix Tue Jun 2 15:39:59 2020 +0100
REM Functional Perdew Burke Ernzerhof Relativity Koelling-Harmon Dispersion off
REM Cut-off 340.0000 eV Grid scale 1.7500 Gmax 16.5316 1/A FBSC none
REM MP grid 3 3 2 Offset 0.000 0.000 0.000 No. kpts 6 Spacing 0.07
REM Total runtime: 52478.6 s
REM Overall efficiency: 96 %
REM
REM
REM
REM compiler GCC version 4.9.2
REM options -cpp -iprefix /lustre/shared/ucl/apps/gcc/4.9.2/bin/../lib/gcc/x86_64-unknown-linux-gnu/4.9.2/ -mtune=corei7 -march=x86-64 -g -Og
REM COMMAND_LINE
REM seed 2111100527 112853125 1628420077 -1725452290 84729152 1785224919 1996675423 2143581873 -1829993548 175092638 -796971397 -1341650548
REM
REM S 3|1.8|5|6|7|30:31:32(qc=5)
REM O 2|1.5|12|13|15|20:21(qc=5)
REM Li 1|1.3|8|9|10|10U:20(qc=5)
REM Fe 3|2.2|2.0|1.0|8|9|10|40:41:32(qc=5)
REM Fe d:4.0 
REM
CELL 1.54180    7.36696    7.36696    9.13382  106.87299  106.87299   58.76448
LATT -1
SFAC Li O  S  Fe 
Li     1 -0.4887080000000  0.2632920000000 -0.2611020000000 1.0  -0.01
Li     1 -0.2632920000000  0.4887080000000  0.2611020000000 1.0  -0.01
Li     1  0.3382700000000 -0.1496860000000  0.1748960000000 1.0  -0.02
Li     1  0.1496860000000 -0.3382700000000 -0.1748960000000 1.0  -0.02
O      2  0.4502740000000  0.1767490000000  0.5106850000000 1.0   0.19
O      2 -0.1767490000000 -0.4502740000000 -0.5106850000000 1.0   0.19
S      3  0.4822490000000 -0.3800410000000 -0.2020250000000 1.0   0.14
S      3  0.3800410000000 -0.4822490000000  0.2020250000000 1.0   0.14
S      3  0.1587840000000  0.3042300000000 -0.2232760000000 1.0   0.13
S      3 -0.3042300000000 -0.1587840000000  0.2232760000000 1.0   0.13
S      3  0.0837470000000  0.2173540000000  0.1920150000000 1.0   0.17
S      3 -0.2173540000000 -0.0837470000000 -0.1920150000000 1.0   0.17
Fe     4  0.1448680000000  0.3919380000000  0.0417920000000 1.0   3.79
Fe     4 -0.3919380000000 -0.1448680000000 -0.0417920000000 1.0   3.79
Fe     4 -0.3227320000000 -0.1279060000000 -0.4817010000000 1.0   3.82
Fe     4  0.1279060000000  0.3227320000000  0.4817010000000 1.0   3.82
Fe     4 -0.2212290000000 -0.4577720000000 -0.3075020000000 1.0   3.78
Fe     4  0.4577720000000  0.2212290000000  0.3075020000000 1.0   3.78
END
