TITL LFSO-Li3FeS2O-201024-130907-dc3153 -0.0018 470.579292 -7.51834563E+003 13.1871 13.7589 21 (P3) n - 1
REM
REM Run started: Sat, 24 Oct 2020 16:02:43 +0100 in /lustre/scratch/uccabz1/launch_tmp/launcher_2020-10-24-12-09-06-061311
REM CASTEP 20.1 from code version af48c487+ pr-geom-scf-spinfix Tue Jun 2 15:39:59 2020 +0100
REM Functional Perdew Burke Ernzerhof Relativity Koelling-Harmon Dispersion off
REM Cut-off 340.0000 eV Grid scale 1.7500 Gmax 16.5316 1/A FBSC none
REM MP grid 3 3 2 Offset 0.000 0.000 0.000 No. kpts 5 Spacing 0.07
REM Total runtime: 11423.4 s
REM Overall efficiency: 77.1 %
REM
REM
REM
REM compiler GCC version 4.9.2
REM options -cpp -iprefix /lustre/shared/ucl/apps/gcc/4.9.2/bin/../lib/gcc/x86_64-unknown-linux-gnu/4.9.2/ -mtune=corei7 -march=x86-64 -g -Og
REM COMMAND_LINE
REM seed 857933391 494354864 636793113 1786321621 -929681187 2070551170 502898015 260344003 1721046002 260775145 1244023616 -1440387707
REM
REM S 3|1.8|5|6|7|30:31:32(qc=5)
REM O 2|1.5|12|13|15|20:21(qc=5)
REM Li 1|1.3|8|9|10|10U:20(qc=5)
REM Fe 3|2.2|2.0|1.0|8|9|10|40:41:32(qc=5)
REM Fe d:4.0 
REM
CELL 1.54180    7.33644    7.33644   10.09558   90.00000   90.00000  120.00000
LATT -1
SFAC Li O  S  Fe 
Li     1 -0.3484550000000 -0.3735300000000  0.1225670000000 1.0  -0.02
Li     1 -0.0250750000000  0.3484550000000  0.1225670000000 1.0  -0.02
Li     1  0.3735300000000  0.0250750000000  0.1225670000000 1.0  -0.02
Li     1 -0.3253240000000  0.0037940000000  0.4512270000000 1.0   0.02
Li     1  0.3291180000000  0.3253240000000  0.4512270000000 1.0   0.02
Li     1 -0.0037940000000 -0.3291180000000  0.4512270000000 1.0   0.02
Li     1 -0.0058770000000  0.3264690000000 -0.3246870000000 1.0  -0.02
Li     1  0.3323460000000  0.0058770000000 -0.3246870000000 1.0  -0.02
Li     1 -0.3264690000000 -0.3323460000000 -0.3246870000000 1.0  -0.02
O      2 -0.0092270000000  0.2471770000000 -0.0337290000000 1.0   0.15
O      2  0.2564040000000  0.0092270000000 -0.0337290000000 1.0   0.15
O      2 -0.2471770000000 -0.2564040000000 -0.0337290000000 1.0   0.15
S      3 -0.5964540000000  0.0609920000000  0.3534970000000 1.0   0.67
S      3 -0.3425540000000  0.5964540000000  0.3534970000000 1.0   0.67
S      3 -0.0609920000000  0.3425540000000  0.3534970000000 1.0   0.67
S      3  0.3404530000000  0.3494830000000 -0.3138810000000 1.0  -0.05
S      3  0.0090300000000 -0.3404530000000 -0.3138810000000 1.0  -0.05
S      3 -0.3494830000000 -0.0090300000000 -0.3138810000000 1.0  -0.05
Fe     4  0.0082660000000 -0.2238460000000 -0.1070110000000 1.0   3.65
Fe     4 -0.2321130000000 -0.0082660000000 -0.1070110000000 1.0   3.65
Fe     4  0.2238460000000  0.2321130000000 -0.1070110000000 1.0   3.65
END
