TITL LFSO-Li3FeS2O-201025-060818-195ee3 0.0170 110.433608 -2.50750876E+003 3.05301 3.74749 7 (P-1) n - 1
REM
REM Run started: Sun, 25 Oct 2020 06:39:02 +0000 in /scratch/scratch/uccabz1/launch_tmp/launcher_2020-10-25-06-08-16-815934
REM CASTEP 19.11| from code version Version unavailable
REM Functional Perdew Burke Ernzerhof Relativity Koelling-Harmon Dispersion off
REM Cut-off 340.0000 eV Grid scale 1.7500 Gmax 16.5316 1/A FBSC none
REM MP grid 5 5 2 Offset 0.000 0.000 0.000 No. kpts 25 Spacing 0.07
REM Total runtime: 2008.76 s
REM Overall efficiency: 93.3333 %
REM
REM
REM
REM compiler GCC version 4.9.2
REM options -cpp -iprefix /scratch/UCL/applications/gcc/4.9.2/bin/../lib/gcc/x86_64-unknown-linux-gnu/4.9.2/ -mtune=corei7 -march=x86-64 -g -O2
REM COMMAND_LINE
REM seed 379574066 1293679509 1892201954 -1467753327 1314365039 1738212876 116454423 -1242405003 -177533341 -1252941870 1381372917 608671121
REM
REM S 3|1.8|5|6|7|30:31:32(qc=5)
REM O 2|1.5|12|13|15|20:21(qc=5)
REM Li 1|1.3|8|9|10|10U:20(qc=5)
REM Fe 3|2.2|2.0|1.0|8|9|10|40:41:32(qc=5)
REM Fe d:4.0 
REM
CELL 1.54180    3.87705    4.30765    8.07232   72.18351   89.16836   60.69831
LATT -1
SFAC Li O  S  Fe 
Li     1 -0.3032740000000 -0.8789050000000  0.2347700000000 1.0  -0.03
Li     1  0.3032740000000  0.8789050000000 -0.2347700000000 1.0  -0.03
Li     1  0.5000000000000 -0.5000000000000  0.5000000000000 1.0   0.02
O      2 -0.5000000000000  0.5000000000000  0.0000000000000 1.0   0.01
S      3 -0.0324020000000  0.5686600000000 -0.3069950000000 1.0  -0.16
S      3  0.0324020000000 -0.5686600000000  0.3069950000000 1.0  -0.16
Fe     4  0.0000000000000 -0.5000000000000  0.0000000000000 1.0   3.41
END
