TITL LFSO-Li5FeS2O2-201026-030150-a40cc4 -0.0136 286.937220 -6.68957965E+003 6.00014 6.98659 20 (P21) n - 1
REM
REM Run started: Mon, 26 Oct 2020 08:10:56 +0000 in /lustre/scratch/uccabz1/launch_tmp/launcher_2020-10-26-03-01-49-206676
REM CASTEP 20.1 from code version af48c487+ pr-geom-scf-spinfix Tue Jun 2 15:39:59 2020 +0100
REM Functional Perdew Burke Ernzerhof Relativity Koelling-Harmon Dispersion off
REM Cut-off 340.0000 eV Grid scale 1.7500 Gmax 16.5316 1/A FBSC none
REM MP grid 4 4 1 Offset 0.000 0.000 0.000 No. kpts 8 Spacing 0.07
REM Total runtime: 20377 s
REM Overall efficiency: 92.25 %
REM
REM
REM
REM compiler GCC version 4.9.2
REM options -cpp -iprefix /lustre/shared/ucl/apps/gcc/4.9.2/bin/../lib/gcc/x86_64-unknown-linux-gnu/4.9.2/ -mtune=corei7 -march=x86-64 -g -Og
REM COMMAND_LINE
REM seed -1040334561 1507566880 -261206976 -266512395 -1429280027 794418836 -1460286358 1528226146 -1201399011 877587322 -2009652584 1101496355
REM
REM S 3|1.8|5|6|7|30:31:32(qc=5)
REM O 2|1.5|12|13|15|20:21(qc=5)
REM Li 1|1.3|8|9|10|10U:20(qc=5)
REM Fe 3|2.2|2.0|1.0|8|9|10|40:41:32(qc=5)
REM Fe d:4.0 
REM
CELL 1.54180    3.77947    3.85784   19.68004   90.00000   90.00000   89.53761
LATT -1
SFAC Li O  S  Fe 
Li     1 -0.2086080000000  0.2753860000000 -0.2510640000000 1.0  -0.01
Li     1  0.2086080000000 -0.2753860000000  0.2489360000000 1.0  -0.01
Li     1 -0.2753820000000  0.3717110000000  0.1762950000000 1.0  -0.01
Li     1  0.2753820000000 -0.3717110000000 -0.3237050000000 1.0  -0.01
Li     1 -0.2267020000000 -0.1252410000000 -0.0502120000000 1.0   0.02
Li     1  0.2267020000000  0.1252410000000  0.4497880000000 1.0   0.02
Li     1 -0.2751520000000  0.1766070000000  0.3408450000000 1.0   0.00
Li     1  0.2751520000000 -0.1766070000000 -0.1591550000000 1.0   0.00
Li     1 -0.2745360000000  0.6279880000000  0.4512390000000 1.0   0.01
Li     1  0.2745360000000 -0.6279880000000 -0.0487610000000 1.0   0.01
O      2 -0.2695830000000 -0.1268570000000  0.1426730000000 1.0  -0.08
O      2  0.2695830000000  0.1268570000000 -0.3573270000000 1.0  -0.08
O      2 -0.2237680000000 -0.2337340000000 -0.2909340000000 1.0  -0.01
O      2  0.2237680000000  0.2337340000000  0.2090660000000 1.0  -0.01
S      3  0.2268290000000  0.6369610000000  0.3685590000000 1.0  -0.01
S      3 -0.2268290000000 -0.6369610000000 -0.1314410000000 1.0  -0.01
S      3 -0.2665990000000  0.1353090000000 -0.4858860000000 1.0  -0.09
S      3  0.2665990000000 -0.1353090000000  0.0141140000000 1.0  -0.09
Fe     4  0.2275950000000 -0.0358310000000  0.1267480000000 1.0   3.19
Fe     4 -0.2275950000000  0.0358310000000 -0.3732520000000 1.0   3.19
END
