TITL LFSO-Li2Fe3S3O-201025-092558-636424 0.0261 233.017145 -4.33598101E+003 12.0000 12.2113 9 (R3) n - 1
REM
REM Run started: Sun, 25 Oct 2020 10:55:09 +0000 in /scratch/scratch/uccabz1/launch_tmp/launcher_2020-10-25-09-25-56-634430
REM CASTEP 19.11| from code version Version unavailable
REM Functional Perdew Burke Ernzerhof Relativity Koelling-Harmon Dispersion off
REM Cut-off 340.0000 eV Grid scale 1.7500 Gmax 16.5316 1/A FBSC none
REM MP grid 3 3 3 Offset 0.000 0.000 0.000 No. kpts 6 Spacing 0.07
REM Total runtime: 6265.18 s
REM Overall efficiency: 95.875 %
REM
REM
REM
REM compiler GCC version 4.9.2
REM options -cpp -iprefix /scratch/UCL/applications/gcc/4.9.2/bin/../lib/gcc/x86_64-unknown-linux-gnu/4.9.2/ -mtune=corei7 -march=x86-64 -g -O2
REM COMMAND_LINE
REM seed -597981340 2119978085 -1961728414 230246041 -286729635 925034347 -676295038 1839535520 -2087343933 -1561720187 -589838616 61036867
REM
REM S 3|1.8|5|6|7|30:31:32(qc=5)
REM O 2|1.5|12|13|15|20:21(qc=5)
REM Li 1|1.3|8|9|10|10U:20(qc=5)
REM Fe 3|2.2|2.0|1.0|8|9|10|40:41:32(qc=5)
REM Fe d:4.0 
REM
CELL 1.54180    6.17760    6.17760    6.17760   84.80820   84.80820   84.80820
LATT -1
SFAC Li O  S  Fe 
Li     1 -0.2636240000000 -0.2636240000000 -0.2636240000000 1.0  -0.06
Li     1  0.3889960000000  0.3889960000000  0.3889960000000 1.0  -0.03
O      2 -0.0756120000000 -0.0756120000000 -0.0756120000000 1.0   0.19
S      3  0.0631540000000 -0.3815520000000  0.5051970000000 1.0   0.07
S      3  0.5051970000000  0.0631540000000 -0.3815520000000 1.0   0.07
S      3 -0.3815520000000  0.5051970000000  0.0631540000000 1.0   0.07
Fe     4 -0.1007160000000 -0.2949690000000  0.1816620000000 1.0   3.89
Fe     4  0.1816620000000 -0.1007160000000 -0.2949690000000 1.0   3.89
Fe     4 -0.2949690000000  0.1816620000000 -0.1007160000000 1.0   3.89
END
