TITL LFSO-Li3FeS2O-201024-230006-8821d9 -0.0433 146.083224 -2.50426602E+003 2.66249 4.18213 7 (Pmm2) n - 1
REM
REM Run started: Sun, 25 Oct 2020 00:27:09 +0100 in /lustre/scratch/uccabz1/launch_tmp/launcher_2020-10-24-22-00-04-382010
REM CASTEP 20.1 from code version af48c487+ pr-geom-scf-spinfix Tue Jun 2 15:39:59 2020 +0100
REM Functional Perdew Burke Ernzerhof Relativity Koelling-Harmon Dispersion off
REM Cut-off 340.0000 eV Grid scale 1.7500 Gmax 16.5316 1/A FBSC none
REM MP grid 5 3 2 Offset 0.000 0.000 0.000 No. kpts 6 Spacing 0.07
REM Total runtime: 5625.34 s
REM Overall efficiency: 90.6923 %
REM
REM
REM
REM compiler GCC version 4.9.2
REM options -cpp -iprefix /lustre/shared/ucl/apps/gcc/4.9.2/bin/../lib/gcc/x86_64-unknown-linux-gnu/4.9.2/ -mtune=corei7 -march=x86-64 -g -Og
REM COMMAND_LINE
REM seed -953077615 1532225900 1045041 -1050838832 -1494847570 -807099232 793321714 -352392746 -1243874311 -886975166 1274079186 -1616849385
REM
REM S 3|1.8|5|6|7|30:31:32(qc=5)
REM O 2|1.5|12|13|15|20:21(qc=5)
REM Li 1|1.3|8|9|10|10U:20(qc=5)
REM Fe 3|2.2|2.0|1.0|8|9|10|40:41:32(qc=5)
REM Fe d:4.0 
REM
CELL 1.54180    2.89627    4.81381   10.47784   90.00000   90.00000   90.00000
LATT -1
SFAC Li O  S  Fe 
Li     1  0.0000000000000  0.2586570000000  0.1203520000000 1.0   0.04
Li     1  0.0000000000000  0.2586570000000 -0.1203520000000 1.0   0.04
Li     1 -0.5000000000000  0.0473700000000 -0.5000000000000 1.0  -0.12
O      2 -0.5000000000000  0.2612780000000  0.0000000000000 1.0  -0.61
S      3 -0.0000000000000 -0.1850830000000  0.3127850000000 1.0  -0.05
S      3  0.0000000000000 -0.1850830000000 -0.3127850000000 1.0  -0.05
Fe     4  0.0000000000000 -0.4070460000000  0.5000000000000 1.0   3.39
END
