TITL LFSO-Li5FeS2O2-201026-233917-b1ac41 -0.0000 186.751321 -3.34475459E+003 3.00000 3.58742 10 (Pm) n - 1
REM
REM Run started: Tue, 27 Oct 2020 01:15:38 +0000 in /lustre/scratch/uccabz1/launch_tmp/launcher_2020-10-26-23-41-34-733157
REM CASTEP 20.1 from code version af48c487+ pr-geom-scf-spinfix Tue Jun 2 15:39:59 2020 +0100
REM Functional Perdew Burke Ernzerhof Relativity Koelling-Harmon Dispersion off
REM Cut-off 340.0000 eV Grid scale 1.7500 Gmax 16.5316 1/A FBSC none
REM MP grid 4 3 2 Offset 0.000 0.000 0.000 No. kpts 6 Spacing 0.07
REM Total runtime: 6065.94 s
REM Overall efficiency: 93.8889 %
REM
REM
REM
REM compiler GCC version 4.9.2
REM options -cpp -iprefix /lustre/shared/ucl/apps/gcc/4.9.2/bin/../lib/gcc/x86_64-unknown-linux-gnu/4.9.2/ -mtune=corei7 -march=x86-64 -g -Og
REM COMMAND_LINE
REM seed 441551923 527392940 -1422747793 1395412390 -1504352535 1149705744 2057964821 -872210857 -1426777375 -165725206 844206 889118722
REM
REM S 3|1.8|5|6|7|30:31:32(qc=5)
REM O 2|1.5|12|13|15|20:21(qc=5)
REM Li 1|1.3|8|9|10|10U:20(qc=5)
REM Fe 3|2.2|2.0|1.0|8|9|10|40:41:32(qc=5)
REM Fe d:4.0 
REM
CELL 1.54180    3.63196    5.88494    8.81451   90.00000   90.00000   82.41428
LATT -1
SFAC Li O  S  Fe 
Li     1  0.2182120000000  0.2673670000000 -0.2069450000000 1.0  -0.01
Li     1  0.2182120000000  0.2673670000000  0.2069450000000 1.0  -0.01
Li     1 -0.2361290000000 -0.3551640000000  0.2695870000000 1.0   0.00
Li     1 -0.2361290000000 -0.3551640000000 -0.2695870000000 1.0   0.00
Li     1 -0.2189360000000  0.1093780000000  0.0000000000000 1.0  -0.01
O      2 -0.3130530000000  0.3795870000000  0.1580950000000 1.0   0.02
O      2 -0.3130530000000  0.3795870000000 -0.1580950000000 1.0   0.02
S      3  0.2360000000000 -0.1455940000000 -0.1834770000000 1.0  -0.11
S      3  0.2360000000000 -0.1455940000000  0.1834770000000 1.0  -0.11
Fe     4  0.4871590000000 -0.4173420000000  0.0000000000000 1.0   3.20
END
