TITL LFSO-Li6FeSO3-201028-085426-3bad29 -0.2690 348.303528 -7.35792983E+003 8.00000 8.19487 22 (Pc) n - 1
REM
REM Run started: Wed, 28 Oct 2020 15:39:19 +0000 in /scratch/scratch/uccabz1/launch_tmp/launcher_2020-10-28-08-54-24-680530
REM CASTEP 19.11| from code version Version unavailable
REM Functional Perdew Burke Ernzerhof Relativity Koelling-Harmon Dispersion off
REM Cut-off 340.0000 eV Grid scale 1.7500 Gmax 16.5316 1/A FBSC none
REM MP grid 4 3 2 Offset 0.000 0.000 0.000 No. kpts 6 Spacing 0.07
REM Total runtime: 27331.7 s
REM Overall efficiency: 97.4167 %
REM
REM
REM
REM compiler GCC version 4.9.2
REM options -cpp -iprefix /scratch/UCL/applications/gcc/4.9.2/bin/../lib/gcc/x86_64-unknown-linux-gnu/4.9.2/ -mtune=corei7 -march=x86-64 -g -O2
REM COMMAND_LINE
REM seed -524789120 799288391 1643072493 829461135 -65438037 1143962743 -185550257 -976477147 -167912962 193371158 1441355075 -364120623
REM
REM S 3|1.8|5|6|7|30:31:32(qc=5)
REM O 2|1.5|12|13|15|20:21(qc=5)
REM Li 1|1.3|8|9|10|10U:20(qc=5)
REM Fe 3|2.2|2.0|1.0|8|9|10|40:41:32(qc=5)
REM Fe d:4.0 
REM
CELL 1.54180    5.78446    7.13710   11.49222   90.00000   90.00000  132.76685
LATT -1
SFAC Li O  S  Fe 
Li     1  0.1653150000000  0.0984610000000  0.1024910000000 1.0   0.02
Li     1  0.1653150000000  0.5984610000000 -0.1024910000000 1.0   0.02
Li     1 -0.5074650000000 -0.3458380000000  0.4447030000000 1.0  -0.03
Li     1 -0.5074650000000  0.1541620000000 -0.4447030000000 1.0  -0.03
Li     1  0.0531820000000  0.0495390000000 -0.1668100000000 1.0  -0.03
Li     1  0.0531820000000 -0.4504610000000  0.1668100000000 1.0  -0.03
Li     1 -0.7111780000000  0.2708000000000  0.3663210000000 1.0  -0.03
Li     1 -0.7111780000000 -0.2292000000000 -0.3663210000000 1.0  -0.03
Li     1 -0.2773260000000 -0.3847350000000 -0.3676600000000 1.0  -0.01
Li     1 -0.2773260000000  0.1152650000000  0.3676600000000 1.0  -0.01
Li     1  0.7918960000000  0.1655640000000 -0.0061580000000 1.0   0.00
Li     1  0.7918960000000  0.6655640000000  0.0061580000000 1.0   0.00
O      2 -0.1025050000000  0.4733740000000  0.0141240000000 1.0   0.01
O      2 -0.1025050000000 -0.0266260000000 -0.0141240000000 1.0   0.01
O      2  0.1257620000000  0.4357500000000  0.3416250000000 1.0   0.13
O      2  0.1257620000000 -0.0642500000000 -0.3416250000000 1.0   0.13
O      2 -0.3786970000000 -0.0443380000000 -0.4835600000000 1.0   0.09
O      2 -0.3786970000000 -0.5443380000000  0.4835600000000 1.0   0.09
S      3  0.2496570000000 -0.0401600000000  0.2647490000000 1.0   0.06
S      3  0.2496570000000  0.4598400000000 -0.2647490000000 1.0   0.06
Fe     4 -0.0070820000000  0.1107060000000 -0.3893310000000 1.0   3.79
Fe     4 -0.0070820000000 -0.3892940000000  0.3893310000000 1.0   3.79
END
