TITL LFSO-Li2Fe4S3O2-201026-012817-70cbf3 0.0229 187.095992 -5.63400422E+003 16.0000 16.1291 11 (I222) n - 1
REM
REM Run started: Mon, 26 Oct 2020 02:30:10 +0000 in /lustre/scratch/uccabz1/launch_tmp/launcher_2020-10-26-01-28-15-919403
REM CASTEP 20.1 from code version af48c487+ pr-geom-scf-spinfix Tue Jun 2 15:39:59 2020 +0100
REM Functional Perdew Burke Ernzerhof Relativity Koelling-Harmon Dispersion off
REM Cut-off 340.0000 eV Grid scale 1.7500 Gmax 16.5316 1/A FBSC none
REM MP grid 3 3 3 Offset 0.000 0.000 0.000 No. kpts 8 Spacing 0.07
REM Total runtime: 4668.93 s
REM Overall efficiency: 78.1429 %
REM
REM
REM
REM compiler GCC version 4.9.2
REM options -cpp -iprefix /lustre/shared/ucl/apps/gcc/4.9.2/bin/../lib/gcc/x86_64-unknown-linux-gnu/4.9.2/ -mtune=corei7 -march=x86-64 -g -Og
REM COMMAND_LINE
REM seed -27088786 807683817 -54492892 859632635 950373062 -1346406987 435459681 -1274739194 234937848 -1558611356 -2087425643 -2139893661
REM
REM S 3|1.8|5|6|7|30:31:32(qc=5)
REM O 2|1.5|12|13|15|20:21(qc=5)
REM Li 1|1.3|8|9|10|10U:20(qc=5)
REM Fe 3|2.2|2.0|1.0|8|9|10|40:41:32(qc=5)
REM Fe d:4.0 
REM
CELL 1.54180    5.58901    7.02078    7.02078   49.04769   66.54476   66.54476
LATT -1
SFAC Li O  S  Fe 
Li     1  0.5000000000000  0.2242110000000 -0.2242110000000 1.0  -0.04
Li     1 -0.5000000000000 -0.2242110000000  0.2242110000000 1.0  -0.04
O      2 -0.7330570000000  0.2330570000000  0.2330570000000 1.0   0.22
O      2  0.7330570000000 -0.2330570000000 -0.2330570000000 1.0   0.22
S      3 -0.3568520000000  0.3568520000000  0.3568520000000 1.0   0.14
S      3  0.3568520000000 -0.3568520000000 -0.3568520000000 1.0   0.14
S      3 -0.0000000000000  0.0000000000000 -0.0000000000000 1.0   0.08
Fe     4  0.0159030000000  0.5809270000000  0.0198470000000 1.0   3.82
Fe     4  0.9840970000000 -0.0198470000000 -0.5809270000000 1.0   3.82
Fe     4 -0.6166770000000  0.0198470000000  0.5809270000000 1.0   3.82
Fe     4 -0.3833230000000 -0.5809270000000 -0.0198470000000 1.0   3.82
END
