TITL LFSO-LiFe3S4O-201028-104827-efebce 0.0111 182.136597 -4.43343356E+003 -4.02679 11.6172 9 (P2) n - 1
REM
REM Run started: Wed, 28 Oct 2020 16:25:00 +0000 in /scratch/scratch/uccabz1/launch_tmp/launcher_2020-10-28-12-34-44-696183
REM CASTEP 19.11| from code version Version unavailable
REM Functional Perdew Burke Ernzerhof Relativity Koelling-Harmon Dispersion off
REM Cut-off 340.0000 eV Grid scale 1.7500 Gmax 16.5316 1/A FBSC none
REM MP grid 6 3 2 Offset 0.000 0.000 0.000 No. kpts 9 Spacing 0.07
REM Total runtime: 22231.6 s
REM Overall efficiency: 74.1 %
REM
REM
REM
REM compiler GCC version 4.9.2
REM options -cpp -iprefix /lustre/shared/ucl/apps/gcc/4.9.2/bin/../lib/gcc/x86_64-unknown-linux-gnu/4.9.2/ -mtune=corei7 -march=x86-64 -g -Og
REM COMMAND_LINE
REM seed 459221354 -469444350 -1969840220 1548526890 1812475638 -805333802 1349095196 823792578 1260423659 -1368459037 -1684831774 1800517033
REM
REM S 3|1.8|5|6|7|30:31:32(qc=5)
REM O 2|1.5|12|13|15|20:21(qc=5)
REM Li 1|1.3|8|9|10|10U:20(qc=5)
REM Fe 3|2.2|2.0|1.0|8|9|10|40:41:32(qc=5)
REM Fe d:4.0 
REM
CELL 1.54180    2.66155    5.90364   12.27990   90.00000   90.00000  109.27471
LATT -1
SFAC Li O  S  Fe 
Li     1  0.0000000000000 -0.5000000000000  0.1436130000000 1.0  -0.03
O      2  0.0000000000000  0.0000000000000 -0.4930970000000 1.0  -0.19
S      3 -0.3560830000000  0.2065710000000 -0.2443170000000 1.0   0.07
S      3  0.3560830000000 -0.2065710000000 -0.2443170000000 1.0   0.07
S      3 -0.2626940000000 -0.2373740000000  0.2625990000000 1.0  -0.05
S      3  0.2626940000000  0.2373740000000  0.2625990000000 1.0  -0.05
Fe     4  0.3372830000000 -0.2639090000000  0.4668480000000 1.0  -3.73
Fe     4 -0.3372830000000  0.2639090000000  0.4668480000000 1.0  -3.73
Fe     4  0.0000000000000  0.5000000000000 -0.1033600000000 1.0   3.62
END
