TITL LFSO-Li2Fe2S2O-201023-155143-cd242f -0.0249 127.995664 -3.16837524E+003 8.00000 8.10541 7 (R3m) n - 1
REM
REM Run started: Fri, 23 Oct 2020 16:54:33 +0100 in /lustre/scratch/uccabz1/launch_tmp/launcher_2020-10-23-14-51-42-206416
REM CASTEP 20.1 from code version af48c487+ pr-geom-scf-spinfix Tue Jun 2 15:39:59 2020 +0100
REM Functional Perdew Burke Ernzerhof Relativity Koelling-Harmon Dispersion off
REM Cut-off 340.0000 eV Grid scale 1.7500 Gmax 16.5316 1/A FBSC none
REM MP grid 5 5 2 Offset 0.000 0.000 0.000 No. kpts 15 Spacing 0.07
REM Total runtime: 4255.52 s
REM Overall efficiency: 90.7778 %
REM
REM
REM
REM compiler GCC version 4.9.2
REM options -cpp -iprefix /lustre/shared/ucl/apps/gcc/4.9.2/bin/../lib/gcc/x86_64-unknown-linux-gnu/4.9.2/ -mtune=corei7 -march=x86-64 -g -Og
REM COMMAND_LINE
REM seed -815291273 -412576069 1304701305 1144267526 2002036085 -845322942 891388147 -1724361442 -431719669 -1531548826 -1836406726 -652574992
REM
REM S 3|1.8|5|6|7|30:31:32(qc=5)
REM O 2|1.5|12|13|15|20:21(qc=5)
REM Li 1|1.3|8|9|10|10U:20(qc=5)
REM Fe 3|2.2|2.0|1.0|8|9|10|40:41:32(qc=5)
REM Fe d:4.0 
REM
CELL 1.54180    3.77800    3.77800   10.58202   79.71698   79.71698   60.00000
LATT -1
SFAC Li O  S  Fe 
Li     1  0.1843000000000  0.1843000000000  0.4471000000000 1.0  -0.00
Li     1  0.0360870000000  0.0360870000000 -0.1082610000000 1.0  -0.08
O      2  0.3764030000000  0.3764030000000 -0.1292080000000 1.0   0.28
S      3 -0.1926380000000 -0.1926380000000 -0.4220860000000 1.0   0.18
S      3 -0.4211470000000 -0.4211470000000  0.2634410000000 1.0   0.11
Fe     4 -0.0641560000000 -0.0641560000000  0.1924670000000 1.0   3.68
Fe     4  0.4365950000000  0.4365950000000 -0.3097860000000 1.0   3.84
END
