TITL LFSO-Li4Fe3S4O-201030-054551-67c555 0.0458 608.889166 -1.00717555E+004 -19.8585 21.0191 24 (P3) n - 1
REM
REM Run started: Sat, 31 Oct 2020 00:13:25 +0000 in /lustre/scratch/uccabz1/launch_tmp/launcher_2020-10-30-05-45-47-530898
REM CASTEP 20.1 from code version af48c487+ pr-geom-scf-spinfix Tue Jun 2 15:39:59 2020 +0100
REM Functional Perdew Burke Ernzerhof Relativity Koelling-Harmon Dispersion off
REM Cut-off 340.0000 eV Grid scale 1.7500 Gmax 16.5316 1/A FBSC none
REM MP grid 3 3 1 Offset 0.000 0.000 0.000 No. kpts 3 Spacing 0.07
REM Total runtime: 49825.9 s
REM Overall efficiency: 75.2 %
REM
REM
REM
REM compiler GCC version 4.9.2
REM options -cpp -iprefix /lustre/shared/ucl/apps/gcc/4.9.2/bin/../lib/gcc/x86_64-unknown-linux-gnu/4.9.2/ -mtune=corei7 -march=x86-64 -g -Og
REM COMMAND_LINE
REM seed -738973645 -1214224674 241332003 -112942192 216413384 814388316 -1238708996 28921694 547521156 -970734050 793845147 -1463586541
REM
REM S 3|1.8|5|6|7|30:31:32(qc=5)
REM O 2|1.5|12|13|15|20:21(qc=5)
REM Li 1|1.3|8|9|10|10U:20(qc=5)
REM Fe 3|2.2|2.0|1.0|8|9|10|40:41:32(qc=5)
REM Fe d:4.0 
REM
CELL 1.54180    6.83645    6.83645   15.04339   90.00000   90.00000  120.00000
LATT -1
SFAC Li O  S  Fe 
Li     1  0.0834450000000 -0.3310590000000 -0.2070850000000 1.0   0.01
Li     1  0.3310590000000  0.4145040000000 -0.2070850000000 1.0   0.01
Li     1 -0.4145040000000 -0.0834450000000 -0.2070850000000 1.0   0.01
Li     1  0.4615810000000  0.1004130000000 -0.4180850000000 1.0   0.01
Li     1 -0.1004130000000  0.3611680000000 -0.4180850000000 1.0   0.01
Li     1 -0.3611680000000 -0.4615810000000 -0.4180850000000 1.0   0.01
Li     1 -0.3333330000000  0.3333330000000  0.2071610000000 1.0   0.23
Li     1 -0.3333330000000  0.3333330000000  0.4066130000000 1.0   0.10
O      2 -0.3333330000000  0.3333330000000 -0.4811990000000 1.0  -0.00
O      2  0.3333330000000 -0.3333330000000 -0.1317300000000 1.0  -0.00
S      3 -0.0469750000000 -0.3282690000000  0.1451640000000 1.0  -0.07
S      3  0.3282690000000  0.2812940000000  0.1451640000000 1.0  -0.07
S      3 -0.2812940000000  0.0469750000000  0.1451640000000 1.0  -0.07
S      3 -0.0855540000000  0.2383910000000 -0.2730430000000 1.0  -0.04
S      3 -0.2383910000000 -0.3239450000000 -0.2730430000000 1.0  -0.04
S      3  0.3239450000000  0.0855540000000 -0.2730430000000 1.0  -0.04
S      3  0.3333330000000 -0.3333330000000 -0.0210330000000 1.0  -0.02
S      3  0.3333330000000 -0.3333330000000  0.3921280000000 1.0   0.06
Fe     4  0.0707600000000  0.4065170000000  0.0904610000000 1.0  -3.53
Fe     4 -0.4065170000000 -0.3357570000000  0.0904610000000 1.0  -3.53
Fe     4  0.3357570000000 -0.0707600000000  0.0904610000000 1.0  -3.53
Fe     4  0.1123510000000 -0.3083830000000  0.2823140000000 1.0  -3.12
Fe     4  0.3083830000000  0.4207330000000  0.2823140000000 1.0  -3.12
Fe     4 -0.4207330000000 -0.1123510000000  0.2823140000000 1.0  -3.12
END
