TITL LFSO-Li2Fe3S3O-201026-151501-2bf8ed -0.2032 329.486260 -8.67080528E+003 23.9944 24.0745 18 (R3) n - 1
REM
REM Run started: Tue, 27 Oct 2020 02:49:08 +0000 in /lustre/scratch/uccabz1/launch_tmp/launcher_2020-10-27-02-08-05-683726
REM CASTEP 20.1 from code version af48c487+ pr-geom-scf-spinfix Tue Jun 2 15:39:59 2020 +0100
REM Functional Perdew Burke Ernzerhof Relativity Koelling-Harmon Dispersion off
REM Cut-off 340.0000 eV Grid scale 1.7500 Gmax 16.5316 1/A FBSC none
REM MP grid 3 3 3 Offset 0.000 0.000 0.000 No. kpts 6 Spacing 0.07
REM Total runtime: 39359.3 s
REM Overall efficiency: 97.8182 %
REM
REM
REM
REM compiler GCC version 4.9.2
REM options -cpp -iprefix /scratch/UCL/applications/gcc/4.9.2/bin/../lib/gcc/x86_64-unknown-linux-gnu/4.9.2/ -mtune=corei7 -march=x86-64 -g -O2
REM COMMAND_LINE
REM seed 2128945093 1539307423 1160066793 -1756847681 -1973256003 -52045482 1492606893 -647884999 901530697 561040392 842735008 1393854471
REM
REM S 3|1.8|5|6|7|30:31:32(qc=5)
REM O 2|1.5|12|13|15|20:21(qc=5)
REM Li 1|1.3|8|9|10|10U:20(qc=5)
REM Fe 3|2.2|2.0|1.0|8|9|10|40:41:32(qc=5)
REM Fe d:4.0 
REM
CELL 1.54180    6.91837    6.91837    6.91837   86.62971   86.62971   86.62971
LATT -1
SFAC Li O  S  Fe 
Li     1  0.2891950000000 -0.0824870000000  0.1673030000000 1.0  -0.03
Li     1 -0.0824870000000  0.1673030000000  0.2891950000000 1.0  -0.03
Li     1  0.1673030000000  0.2891950000000 -0.0824870000000 1.0  -0.03
Li     1  0.5084090000000  0.5084090000000  0.5084090000000 1.0  -0.02
O      2 -0.3343040000000 -0.3343040000000 -0.3343040000000 1.0   0.17
O      2  0.0486970000000  0.0486970000000  0.0486970000000 1.0   0.18
S      3  0.2204520000000 -0.3769770000000 -0.0079240000000 1.0   0.14
S      3 -0.3769770000000 -0.0079240000000  0.2204520000000 1.0   0.14
S      3 -0.0079240000000  0.2204520000000 -0.3769770000000 1.0   0.14
S      3 -0.2405950000000 -0.5177850000000  0.1969790000000 1.0   0.11
S      3 -0.5177850000000  0.1969790000000 -0.2405950000000 1.0   0.11
S      3  0.1969790000000 -0.2405950000000 -0.5177850000000 1.0   0.11
Fe     4 -0.0644320000000 -0.4353190000000 -0.4162710000000 1.0   3.89
Fe     4 -0.4353190000000 -0.4162710000000 -0.0644320000000 1.0   3.89
Fe     4 -0.4162710000000 -0.0644320000000 -0.4353190000000 1.0   3.89
Fe     4 -0.0849060000000 -0.2138630000000  0.1619820000000 1.0   3.78
Fe     4 -0.2138630000000  0.1619820000000 -0.0849060000000 1.0   3.78
Fe     4  0.1619820000000 -0.0849060000000 -0.2138630000000 1.0   3.78
END
