TITL LFSO-Li2Fe4S4O-201022-181647-e5fca1 0.0232 336.813151 -5.49999864E+003 16.0000 16.2157 11 (Amm2) n - 1
REM
REM Run started: Thu, 22 Oct 2020 20:02:55 +0100 in /lustre/scratch/uccabz1/launch_tmp/launcher_2020-10-22-17-16-45-765779
REM CASTEP 20.1 from code version af48c487+ pr-geom-scf-spinfix Tue Jun 2 15:39:59 2020 +0100
REM Functional Perdew Burke Ernzerhof Relativity Koelling-Harmon Dispersion off
REM Cut-off 340.0000 eV Grid scale 1.7500 Gmax 16.5316 1/A FBSC none
REM MP grid 3 3 2 Offset 0.000 0.000 0.000 No. kpts 4 Spacing 0.07
REM Total runtime: 7640.27 s
REM Overall efficiency: 87.7778 %
REM
REM
REM
REM compiler GCC version 4.9.2
REM options -cpp -iprefix /lustre/shared/ucl/apps/gcc/4.9.2/bin/../lib/gcc/x86_64-unknown-linux-gnu/4.9.2/ -mtune=corei7 -march=x86-64 -g -Og
REM COMMAND_LINE
REM seed 23028486 -104766040 1597470438 2064958248 1989088956 -1516168518 652473816 -1579950734 1252853244 -103227757 752226407 -919086620
REM
REM S 3|1.8|5|6|7|30:31:32(qc=5)
REM O 2|1.5|12|13|15|20:21(qc=5)
REM Li 1|1.3|8|9|10|10U:20(qc=5)
REM Fe 3|2.2|2.0|1.0|8|9|10|40:41:32(qc=5)
REM Fe d:4.0 
REM
CELL 1.54180    5.72442    5.72442   10.37536   90.00000   90.00000   82.16076
LATT -1
SFAC Li O  S  Fe 
Li     1 -0.1504700000000  0.1504700000000 -0.3140580000000 1.0  -0.01
Li     1 -0.1504700000000  0.1504700000000  0.3140580000000 1.0  -0.01
O      2 -0.7792800000000 -0.2207200000000  0.0000000000000 1.0   0.22
S      3 -0.2795060000000 -0.2073660000000  0.2543890000000 1.0   0.15
S      3  0.2073660000000  0.2795060000000 -0.2543890000000 1.0   0.15
S      3  0.2073660000000  0.2795060000000  0.2543890000000 1.0   0.15
S      3 -0.2795060000000 -0.2073660000000 -0.2543890000000 1.0   0.15
Fe     4  0.3807950000000 -0.0521900000000 -0.1472250000000 1.0   3.79
Fe     4  0.0521900000000 -0.3807950000000  0.1472250000000 1.0   3.79
Fe     4  0.0521900000000 -0.3807950000000 -0.1472250000000 1.0   3.79
Fe     4  0.3807950000000 -0.0521900000000  0.1472250000000 1.0   3.79
END
