TITL LFSO-LiFe3S4O-201028-110513-706091 0.0704 167.037666 -4.43794965E+003 11.0000 11.8297 9 (R3m) n - 1
REM
REM Run started: Wed, 28 Oct 2020 13:49:31 +0000 in /scratch/scratch/uccabz1/launch_tmp/launcher_2020-10-28-11-05-12-235966
REM CASTEP 19.11| from code version Version unavailable
REM Functional Perdew Burke Ernzerhof Relativity Koelling-Harmon Dispersion off
REM Cut-off 340.0000 eV Grid scale 1.7500 Gmax 16.5316 1/A FBSC none
REM MP grid 3 3 3 Offset 0.000 0.000 0.000 No. kpts 6 Spacing 0.07
REM Total runtime: 11309.5 s
REM Overall efficiency: 95.5 %
REM
REM
REM
REM compiler GCC version 4.9.2
REM options -cpp -iprefix /scratch/UCL/applications/gcc/4.9.2/bin/../lib/gcc/x86_64-unknown-linux-gnu/4.9.2/ -mtune=corei7 -march=x86-64 -g -O2
REM COMMAND_LINE
REM seed 1533486625 -482056450 55428164 638291569 -644287730 198741724 44849519 1630164639 2140082623 -1464678591 317798781 625889061
REM
REM S 3|1.8|5|6|7|30:31:32(qc=5)
REM O 2|1.5|12|13|15|20:21(qc=5)
REM Li 1|1.3|8|9|10|10U:20(qc=5)
REM Fe 3|2.2|2.0|1.0|8|9|10|40:41:32(qc=5)
REM Fe d:4.0 
REM
CELL 1.54180    5.50936    5.50936    5.50936   88.41745   88.41745   88.41745
LATT -1
SFAC Li O  S  Fe 
Li     1  0.4509030000000  0.4509030000000  0.4509030000000 1.0  -0.02
O      2 -0.3170880000000 -0.3170880000000 -0.3170880000000 1.0   0.12
S      3  0.1572270000000 -0.3458950000000  0.1572500000000 1.0  -0.04
S      3 -0.3458950000000  0.1572500000000  0.1572270000000 1.0  -0.04
S      3  0.1572500000000  0.1572270000000 -0.3458950000000 1.0  -0.04
S      3  0.1590380000000  0.1590380000000  0.1590380000000 1.0  -0.29
Fe     4 -0.1141020000000 -0.5575010000000 -0.1141330000000 1.0   3.77
Fe     4 -0.5575010000000 -0.1141330000000 -0.1141020000000 1.0   3.77
Fe     4 -0.1141330000000 -0.1141020000000 -0.5575010000000 1.0   3.77
END
