TITL LFSO-Li4Fe3S4O-201030-025052-756a3a 0.1681 222.935230 -5.04008643E+003 12.0000 12.1716 12 (P-1) n - 1
REM
REM Run started: Fri, 30 Oct 2020 12:01:33 +0000 in /scratch/scratch/uccabz1/launch_tmp/launcher_2020-10-30-02-50-49-472901
REM CASTEP 19.11| from code version Version unavailable
REM Functional Perdew Burke Ernzerhof Relativity Koelling-Harmon Dispersion off
REM Cut-off 340.0000 eV Grid scale 1.7500 Gmax 16.5316 1/A FBSC none
REM MP grid 5 2 3 Offset 0.000 0.000 0.000 No. kpts 15 Spacing 0.07
REM Total runtime: 35336.3 s
REM Overall efficiency: 96.2308 %
REM
REM
REM
REM compiler GCC version 4.9.2
REM options -cpp -iprefix /scratch/UCL/applications/gcc/4.9.2/bin/../lib/gcc/x86_64-unknown-linux-gnu/4.9.2/ -mtune=corei7 -march=x86-64 -g -O2
REM COMMAND_LINE
REM seed 1921461739 1044449924 -42754524 -373745402 785930080 -358888896 -1543429035 1603195734 256712911 1667282289 -1153081344 -888984376
REM
REM S 3|1.8|5|6|7|30:31:32(qc=5)
REM O 2|1.5|12|13|15|20:21(qc=5)
REM Li 1|1.3|8|9|10|10U:20(qc=5)
REM Fe 3|2.2|2.0|1.0|8|9|10|40:41:32(qc=5)
REM Fe d:4.0 
REM
CELL 1.54180    4.37400    9.47934    7.04192  111.07763   94.73190   55.91191
LATT -1
SFAC Li O  S  Fe 
Li     1  0.1269530000000  0.3584440000000  0.1282910000000 1.0  -0.01
Li     1 -0.1269530000000 -0.3584440000000 -0.1282910000000 1.0  -0.01
Li     1  0.2990960000000 -0.2800260000000  0.4462820000000 1.0  -0.02
Li     1 -0.2990960000000  0.2800260000000 -0.4462820000000 1.0  -0.02
O      2  0.0000000000000  0.0000000000000 -0.5000000000000 1.0   0.22
S      3 -0.2049110000000 -0.2981290000000  0.2436660000000 1.0   0.12
S      3  0.2049110000000  0.2981290000000 -0.2436660000000 1.0   0.12
S      3 -0.2105450000000  0.2338610000000  0.1913860000000 1.0   0.12
S      3  0.2105450000000 -0.2338610000000 -0.1913860000000 1.0   0.12
Fe     4 -0.1175620000000  0.0865630000000 -0.1761340000000 1.0   3.80
Fe     4  0.1175620000000 -0.0865630000000  0.1761340000000 1.0   3.80
Fe     4 -0.5000000000000  0.0000000000000  0.5000000000000 1.0   3.76
END
