TITL LFSO-Li2Fe3S2O2-201024-033149-375f16 -0.2643 352.472630 -8.93912462E+003 24.0000 24.2189 18 (Cc) n - 1
REM
REM Run started: Sat, 24 Oct 2020 16:36:38 +0100 in /lustre/scratch/uccabz1/launch_tmp/launcher_2020-10-24-02-31-47-741200
REM CASTEP 20.1 from code version af48c487+ pr-geom-scf-spinfix Tue Jun 2 15:39:59 2020 +0100
REM Functional Perdew Burke Ernzerhof Relativity Koelling-Harmon Dispersion off
REM Cut-off 340.0000 eV Grid scale 1.7500 Gmax 16.5316 1/A FBSC none
REM MP grid 3 3 2 Offset 0.000 0.000 0.000 No. kpts 6 Spacing 0.07
REM Total runtime: 52209.4 s
REM Overall efficiency: 87 %
REM
REM
REM
REM compiler GCC version 4.9.2
REM options -cpp -iprefix /lustre/shared/ucl/apps/gcc/4.9.2/bin/../lib/gcc/x86_64-unknown-linux-gnu/4.9.2/ -mtune=corei7 -march=x86-64 -g -Og
REM COMMAND_LINE
REM seed 1645510540 -1290983219 829049692 -1971567392 -361514234 992714064 822451283 -245388842 1011906264 -1060574617 756980647 2096266019
REM
REM S 3|1.8|5|6|7|30:31:32(qc=5)
REM O 2|1.5|12|13|15|20:21(qc=5)
REM Li 1|1.3|8|9|10|10U:20(qc=5)
REM Fe 3|2.2|2.0|1.0|8|9|10|40:41:32(qc=5)
REM Fe d:4.0 
REM
CELL 1.54180    6.86606    6.86606    7.51068   89.52643   89.52643   84.58502
LATT -1
SFAC Li O  S  Fe 
Li     1  0.1273370000000 -0.1534350000000  0.1893080000000 1.0  -0.02
Li     1 -0.1534350000000  0.1273370000000 -0.3106920000000 1.0  -0.02
Li     1 -0.3203650000000 -0.4576000000000  0.6442270000000 1.0  -0.05
Li     1 -0.4576000000000 -0.3203650000000  0.1442270000000 1.0  -0.05
O      2 -0.3377710000000  0.1511390000000 -0.4810460000000 1.0   0.22
O      2  0.1511390000000 -0.3377710000000  0.0189540000000 1.0   0.22
O      2 -0.1385940000000 -0.2429800000000 -0.3391390000000 1.0   0.15
O      2 -0.2429800000000 -0.1385940000000  0.1608610000000 1.0   0.15
S      3  0.4187270000000 -0.3479310000000  0.4397500000000 1.0   0.07
S      3 -0.3479310000000  0.4187270000000 -0.0602500000000 1.0   0.07
S      3  0.2994350000000  0.1415030000000  0.1890290000000 1.0   0.16
S      3  0.1415030000000  0.2994350000000 -0.3109710000000 1.0   0.16
Fe     4 -0.2974580000000 -0.1192310000000  0.4325940000000 1.0   3.87
Fe     4 -0.1192310000000 -0.2974580000000 -0.0674060000000 1.0   3.87
Fe     4  0.2696610000000  0.4028710000000 -0.0278850000000 1.0   3.83
Fe     4  0.4028710000000  0.2696610000000 -0.5278850000000 1.0   3.83
Fe     4 -0.3670320000000  0.1252510000000  0.1024200000000 1.0   3.78
Fe     4  0.1252510000000 -0.3670320000000 -0.3975800000000 1.0   3.78
END
