TITL LFSO-Li3FeS2O-201025-070426-99dead -0.7296 232.268455 -5.01381254E+003 -0.285350E-06 8.04043 14 (R3) n - 1
REM
REM Run started: Sun, 25 Oct 2020 12:45:10 +0000 in /lustre/scratch/uccabz1/launch_tmp/launcher_2020-10-25-07-04-24-797421
REM CASTEP 20.1 from code version af48c487+ pr-geom-scf-spinfix Tue Jun 2 15:39:59 2020 +0100
REM Functional Perdew Burke Ernzerhof Relativity Koelling-Harmon Dispersion off
REM Cut-off 340.0000 eV Grid scale 1.7500 Gmax 16.5316 1/A FBSC none
REM MP grid 3 3 3 Offset 0.000 0.000 0.000 No. kpts 6 Spacing 0.07
REM Total runtime: 31595.1 s
REM Overall efficiency: 71.9167 %
REM
REM
REM
REM compiler GCC version 4.9.2
REM options -cpp -iprefix /lustre/shared/ucl/apps/gcc/4.9.2/bin/../lib/gcc/x86_64-unknown-linux-gnu/4.9.2/ -mtune=corei7 -march=x86-64 -g -Og
REM COMMAND_LINE
REM seed -433129147 -823325503 -1050664814 279383610 1382228781 -1040588212 -592513395 -1538011941 -1833076031 -1657691974 -932025424 1816303506
REM
REM S 3|1.8|5|6|7|30:31:32(qc=5)
REM O 2|1.5|12|13|15|20:21(qc=5)
REM Li 1|1.3|8|9|10|10U:20(qc=5)
REM Fe 3|2.2|2.0|1.0|8|9|10|40:41:32(qc=5)
REM Fe d:4.0 
REM
CELL 1.54180    7.57770    7.57770    7.57770   49.63421   49.63421   49.63421
LATT -1
SFAC Li O  S  Fe 
Li     1  0.2505450000000  0.0640220000000 -0.3740490000000 1.0   0.02
Li     1 -0.3740490000000  0.2505450000000  0.0640220000000 1.0   0.02
Li     1  0.0640220000000 -0.3740490000000  0.2505450000000 1.0   0.02
Li     1  0.2623920000000  0.4201180000000 -0.0578060000000 1.0  -0.05
Li     1 -0.0578060000000  0.2623920000000  0.4201180000000 1.0  -0.05
Li     1  0.4201180000000 -0.0578060000000  0.2623920000000 1.0  -0.05
O      2  0.2675800000000  0.2675800000000  0.2675800000000 1.0  -0.00
O      2 -0.0394100000000 -0.0394100000000 -0.0394100000000 1.0   0.30
S      3  0.7364580000000 -0.4492250000000  0.1390580000000 1.0   0.04
S      3  0.1390580000000  0.7364580000000 -0.4492250000000 1.0   0.04
S      3 -0.4492250000000  0.1390580000000  0.7364580000000 1.0   0.04
S      3 -0.3678690000000 -0.3678690000000 -0.3678690000000 1.0  -0.22
Fe     4 -0.1302180000000 -0.1302180000000 -0.1302180000000 1.0   3.56
Fe     4 -0.2568840000000 -0.2568840000000 -0.2568840000000 1.0  -3.67
END
