TITL LFSO-Li3FeS2O-201025-043711-364a4a 0.0034 118.765590 -2.50727826E+003 3.66835 4.14727 7 (Cm) n - 1
REM
REM Run started: Sun, 25 Oct 2020 05:04:05 +0000 in /scratch/scratch/uccabz1/launch_tmp/launcher_2020-10-25-04-37-09-756919
REM CASTEP 19.11| from code version Version unavailable
REM Functional Perdew Burke Ernzerhof Relativity Koelling-Harmon Dispersion off
REM Cut-off 340.0000 eV Grid scale 1.7500 Gmax 16.5316 1/A FBSC none
REM MP grid 3 3 6 Offset 0.000 0.000 0.000 No. kpts 18 Spacing 0.07
REM Total runtime: 1630.07 s
REM Overall efficiency: 82.375 %
REM
REM
REM
REM compiler GCC version 4.9.2
REM options -cpp -iprefix /scratch/UCL/applications/gcc/4.9.2/bin/../lib/gcc/x86_64-unknown-linux-gnu/4.9.2/ -mtune=corei7 -march=x86-64 -g -O2
REM COMMAND_LINE
REM seed -1745993618 -105158288 1188400888 -368613260 -357039121 -1583281923 727330327 1171883828 -844885398 1328719463 890805579 -285983589
REM
REM S 3|1.8|5|6|7|30:31:32(qc=5)
REM O 2|1.5|12|13|15|20:21(qc=5)
REM Li 1|1.3|8|9|10|10U:20(qc=5)
REM Fe 3|2.2|2.0|1.0|8|9|10|40:41:32(qc=5)
REM Fe d:4.0 
REM
CELL 1.54180    6.99158    6.99158    3.14418  117.99725  117.99725   83.28794
LATT -1
SFAC Li O  S  Fe 
Li     1 -0.3529700000000  0.0761700000000  0.1352590000000 1.0  -0.03
Li     1  0.0761700000000 -0.3529700000000  0.1352590000000 1.0  -0.03
Li     1 -0.2796490000000 -0.2796490000000 -0.6636580000000 1.0   0.04
O      2 -0.1288840000000 -0.1288840000000  0.1448090000000 1.0   0.12
S      3 -0.1304430000000  0.3636200000000  0.1424360000000 1.0  -0.12
S      3  0.3636200000000 -0.1304430000000  0.1424360000000 1.0  -0.12
Fe     4  0.0390960000000  0.0390960000000 -0.0092880000000 1.0   3.81
END
