TITL LFSO-Li6FeS3O-201027-162833-e5cf92 -0.0541 342.734340 -3.40828695E+003 3.89373 4.10203 11 (Amm2) n - 1
REM
REM Run started: Tue, 27 Oct 2020 20:36:05 +0000 in /scratch/scratch/uccabz1/launch_tmp/launcher_2020-10-27-16-28-32-010733
REM CASTEP 19.11| from code version Version unavailable
REM Functional Perdew Burke Ernzerhof Relativity Koelling-Harmon Dispersion off
REM Cut-off 340.0000 eV Grid scale 1.7500 Gmax 16.5316 1/A FBSC none
REM MP grid 4 5 1 Offset 0.000 0.000 0.000 No. kpts 10 Spacing 0.07
REM Total runtime: 16025.9 s
REM Overall efficiency: 88.0769 %
REM
REM
REM
REM compiler GCC version 4.9.2
REM options -cpp -iprefix /scratch/UCL/applications/gcc/4.9.2/bin/../lib/gcc/x86_64-unknown-linux-gnu/4.9.2/ -mtune=corei7 -march=x86-64 -g -O2
REM COMMAND_LINE
REM seed -1971279476 -1124954796 1266924893 -1382516234 1633918290 -1940697998 215392412 1353269256 1324012771 1477741589 859632635 -692604025
REM
REM S 3|1.8|5|6|7|30:31:32(qc=5)
REM O 2|1.5|12|13|15|20:21(qc=5)
REM Li 1|1.3|8|9|10|10U:20(qc=5)
REM Fe 3|2.2|2.0|1.0|8|9|10|40:41:32(qc=5)
REM Fe d:4.0 
REM
CELL 1.54180    6.72735    4.48584   17.16580   90.00000   90.00000  138.57678
LATT -1
SFAC Li O  S  Fe 
Li     1  0.3325690000000  0.0474950000000  0.3990890000000 1.0  -0.03
Li     1 -0.2850740000000  0.0474950000000 -0.3990890000000 1.0  -0.03
Li     1 -0.2850740000000  0.0474950000000  0.3990890000000 1.0  -0.03
Li     1  0.3325690000000  0.0474950000000 -0.3990890000000 1.0  -0.03
Li     1  0.3267530000000  0.6535060000000  0.0882750000000 1.0  -0.00
Li     1  0.3267530000000  0.6535060000000 -0.0882750000000 1.0  -0.00
O      2 -0.5127920000000 -0.0255840000000  0.5000000000000 1.0   0.22
S      3 -0.1385060000000  0.7229880000000  0.3663840000000 1.0   0.04
S      3 -0.1385060000000  0.7229880000000 -0.3663840000000 1.0   0.04
S      3  0.0479820000000  0.0959650000000  0.0000000000000 1.0   0.00
Fe     4 -0.1910970000000 -0.3821940000000 -0.5000000000000 1.0   3.69
END
