TITL LFSO-Li6FeSO3-201028-045927-6312c0 0.0271 268.829302 -7.35967445E+003 8.00000 8.19674 22 (Cc) n - 1
REM
REM Run started: Wed, 28 Oct 2020 06:31:27 +0000 in /scratch/scratch/uccabz1/launch_tmp/launcher_2020-10-28-04-59-26-251805
REM CASTEP 19.11| from code version Version unavailable
REM Functional Perdew Burke Ernzerhof Relativity Koelling-Harmon Dispersion off
REM Cut-off 340.0000 eV Grid scale 1.7500 Gmax 16.5316 1/A FBSC none
REM MP grid 3 3 2 Offset 0.000 0.000 0.000 No. kpts 6 Spacing 0.07
REM Total runtime: 5937.17 s
REM Overall efficiency: 77.6154 %
REM
REM
REM
REM compiler GCC version 4.9.2
REM options -cpp -iprefix /scratch/UCL/applications/gcc/4.9.2/bin/../lib/gcc/x86_64-unknown-linux-gnu/4.9.2/ -mtune=corei7 -march=x86-64 -g -O2
REM COMMAND_LINE
REM seed -726415135 540466569 -76228567 1149704110 527466431 8427813 -848132682 -349885742 917343641 1854727698 -805152907 2068882472
REM
REM S 3|1.8|5|6|7|30:31:32(qc=5)
REM O 2|1.5|12|13|15|20:21(qc=5)
REM Li 1|1.3|8|9|10|10U:20(qc=5)
REM Fe 3|2.2|2.0|1.0|8|9|10|40:41:32(qc=5)
REM Fe d:4.0 
REM
CELL 1.54180    5.28998    5.28998    9.99138   97.41214   97.41214   77.12183
LATT -1
SFAC Li O  S  Fe 
Li     1 -0.2677740000000  0.1259790000000 -0.4029160000000 1.0   0.04
Li     1 -0.3740210000000  0.2322260000000  0.0970840000000 1.0   0.04
Li     1 -0.3791430000000 -0.4025010000000 -0.3947650000000 1.0  -0.01
Li     1  0.0974990000000  0.1208570000000  0.1052350000000 1.0  -0.01
Li     1 -0.4957540000000 -0.0934480000000 -0.1064620000000 1.0  -0.05
Li     1 -0.5934480000000  0.0042460000000  0.3935380000000 1.0  -0.05
Li     1 -0.2804650000000  0.2441800000000  0.3348470000000 1.0  -0.05
Li     1 -0.2558200000000  0.2195350000000 -0.1651530000000 1.0  -0.05
Li     1  0.1395120000000 -0.4857390000000  0.5808290000000 1.0  -0.06
Li     1  0.0142610000000 -0.3604880000000  0.0808290000000 1.0  -0.06
Li     1  0.2562420000000  0.1001850000000 -0.3365920000000 1.0   0.03
Li     1 -0.3998150000000 -0.2437580000000  0.1634080000000 1.0   0.03
O      2  0.4276540000000  0.1108570000000  0.2203450000000 1.0   0.08
O      2 -0.3891430000000 -0.0723460000000 -0.2796550000000 1.0   0.08
O      2 -0.0635550000000  0.3791970000000 -0.3073350000000 1.0   0.09
O      2 -0.1208030000000  0.4364450000000  0.1926650000000 1.0   0.09
O      2 -0.1601180000000 -0.0568320000000 -0.0075260000000 1.0   0.08
O      2  0.4431680000000  0.3398820000000 -0.5075260000000 1.0   0.08
S      3  0.0262290000000 -0.1291690000000  0.4427920000000 1.0   0.06
S      3  0.3708310000000  0.5262290000000 -0.0572080000000 1.0   0.06
Fe     4  0.1932460000000  0.4421240000000  0.3247090000000 1.0   3.79
Fe     4 -0.0578760000000 -0.3067540000000 -0.1752910000000 1.0   3.79
END
