TITL LFSO-Li3FeS2O-201022-210533-b6d241 0.0035 134.546870 -2.50337378E+003 3.12425 4.79436 7 (R3) n - 1
REM
REM Run started: Thu, 22 Oct 2020 21:26:16 +0100 in /lustre/scratch/uccabz1/launch_tmp/launcher_2020-10-22-20-05-32-238430
REM CASTEP 20.1 from code version af48c487+ pr-geom-scf-spinfix Tue Jun 2 15:39:59 2020 +0100
REM Functional Perdew Burke Ernzerhof Relativity Koelling-Harmon Dispersion off
REM Cut-off 340.0000 eV Grid scale 1.7500 Gmax 16.5316 1/A FBSC none
REM MP grid 4 4 3 Offset 0.000 0.000 0.000 No. kpts 24 Spacing 0.07
REM Total runtime: 1910.34 s
REM Overall efficiency: 92.2 %
REM
REM
REM
REM compiler GCC version 4.9.2
REM options -cpp -iprefix /lustre/shared/ucl/apps/gcc/4.9.2/bin/../lib/gcc/x86_64-unknown-linux-gnu/4.9.2/ -mtune=corei7 -march=x86-64 -g -Og
REM COMMAND_LINE
REM seed 684379094 2106768175 -1709254971 1297510324 1120128282 -885587616 -660277400 1160983606 772388029 -627894184 -133225860 716617838
REM
REM S 3|1.8|5|6|7|30:31:32(qc=5)
REM O 2|1.5|12|13|15|20:21(qc=5)
REM Li 1|1.3|8|9|10|10U:20(qc=5)
REM Fe 3|2.2|2.0|1.0|8|9|10|40:41:32(qc=5)
REM Fe d:4.0 
REM
CELL 1.54180    4.71593    4.71593    7.49754   71.66944   71.66944   60.00000
LATT -1
SFAC Li O  S  Fe 
Li     1 -0.2674600000000  0.3270890000000 -0.1017230000000 1.0   0.02
Li     1  0.3270890000000  0.0420940000000 -0.1017230000000 1.0   0.02
Li     1  0.0420940000000 -0.2674600000000 -0.1017230000000 1.0   0.02
O      2 -0.3112380000000 -0.3112380000000 -0.0662860000000 1.0  -0.54
S      3 -0.0663100000000 -0.0663100000000  0.1989290000000 1.0  -0.08
S      3  0.1215370000000  0.1215370000000 -0.3646100000000 1.0  -0.28
Fe     4  0.2309580000000  0.2309580000000  0.3071270000000 1.0   3.98
END
