TITL LFSO-Li2Fe4S3O2-201026-194153-38b0a0 -0.3289 464.246674 -1.12689819E+004 31.9911 32.2499 22 (R3) n - 1
REM
REM Run started: Wed, 28 Oct 2020 21:05:58 +0000 in /lustre/scratch/uccabz1/launch_tmp/launcher_2020-10-28-19-45-56-388318
REM CASTEP 20.1 from code version af48c487+ pr-geom-scf-spinfix Tue Jun 2 15:39:59 2020 +0100
REM Functional Perdew Burke Ernzerhof Relativity Koelling-Harmon Dispersion off
REM Cut-off 340.0000 eV Grid scale 1.7500 Gmax 16.5316 1/A FBSC none
REM MP grid 3 3 3 Offset 0.000 0.000 0.000 No. kpts 6 Spacing 0.07
REM Total runtime: 175557 s
REM Overall efficiency: 96.7143 %
REM
REM
REM
REM compiler GCC version 4.9.2
REM options -cpp -iprefix /scratch/UCL/applications/gcc/4.9.2/bin/../lib/gcc/x86_64-unknown-linux-gnu/4.9.2/ -mtune=corei7 -march=x86-64 -g -O2
REM COMMAND_LINE
REM seed 1171211089 2072077478 1045205431 -142700104 825380787 -1174167962 -299488711 -1756845721 648261839 -1941056926 1582053169 -470877194
REM
REM S 3|1.8|5|6|7|30:31:32(qc=5)
REM O 2|1.5|12|13|15|20:21(qc=5)
REM Li 1|1.3|8|9|10|10U:20(qc=5)
REM Fe 3|2.2|2.0|1.0|8|9|10|40:41:32(qc=5)
REM Fe d:4.0 
REM
CELL 1.54180   10.86256   10.86256   10.86256   39.37578   39.37577   39.37577
LATT -1
SFAC Li O  S  Fe 
Li     1  0.0134840000000  0.5457270000000 -0.2105140000000 1.0  -0.10
Li     1 -0.2105140000000  0.0134840000000  0.5457270000000 1.0  -0.10
Li     1  0.5457270000000 -0.2105140000000  0.0134840000000 1.0  -0.10
Li     1  0.5921540000000  0.5921540000000  0.5921540000000 1.0   0.01
O      2 -0.4787170000000  0.0608330000000 -0.2279630000000 1.0   0.19
O      2 -0.2279630000000 -0.4787170000000  0.0608330000000 1.0   0.19
O      2  0.0608330000000 -0.2279630000000 -0.4787170000000 1.0   0.19
O      2  0.1492120000000  0.1492120000000  0.1492120000000 1.0   0.21
S      3  0.5478680000000  0.2797930000000 -0.0788440000000 1.0   0.13
S      3 -0.0788440000000  0.5478680000000  0.2797930000000 1.0   0.13
S      3  0.2797930000000 -0.0788440000000  0.5478680000000 1.0   0.13
S      3  0.3390880000000 -0.2713790000000  0.0409150000000 1.0   0.13
S      3  0.0409150000000  0.3390880000000 -0.2713790000000 1.0   0.13
S      3 -0.2713790000000  0.0409150000000  0.3390880000000 1.0   0.13
Fe     4 -0.3101640000000  0.4142420000000  0.0556300000000 1.0   3.86
Fe     4  0.0556300000000 -0.3101640000000  0.4142420000000 1.0   3.86
Fe     4  0.4142420000000  0.0556300000000 -0.3101640000000 1.0   3.86
Fe     4  0.1876200000000 -0.0887080000000  0.4247960000000 1.0   3.83
Fe     4  0.4247960000000  0.1876200000000 -0.0887080000000 1.0   3.83
Fe     4 -0.0887080000000  0.4247960000000  0.1876200000000 1.0   3.83
Fe     4  0.0745210000000  0.0745210000000  0.0745210000000 1.0   3.74
Fe     4  0.2625880000000  0.2625880000000  0.2625880000000 1.0   3.77
END
