TITL LFSO-Li4Fe2S3O-201026-131821-43dd51 -0.1936 395.613258 -7.74700843E+003 16.0000 16.1931 20 (P-1) n - 1
REM
REM Run started: Tue, 27 Oct 2020 11:07:18 +0000 in /lustre/scratch/uccabz1/launch_tmp/launcher_2020-10-26-13-18-19-919239
REM CASTEP 20.1 from code version af48c487+ pr-geom-scf-spinfix Tue Jun 2 15:39:59 2020 +0100
REM Functional Perdew Burke Ernzerhof Relativity Koelling-Harmon Dispersion off
REM Cut-off 340.0000 eV Grid scale 1.7500 Gmax 16.5316 1/A FBSC none
REM MP grid 5 3 1 Offset 0.000 0.000 0.000 No. kpts 8 Spacing 0.07
REM Total runtime: 64236.5 s
REM Overall efficiency: 76.3333 %
REM
REM
REM
REM compiler GCC version 4.9.2
REM options -cpp -iprefix /lustre/shared/ucl/apps/gcc/4.9.2/bin/../lib/gcc/x86_64-unknown-linux-gnu/4.9.2/ -mtune=corei7 -march=x86-64 -g -Og
REM COMMAND_LINE
REM seed 242168916 2068248607 -62295673 2080820185 412346636 867711699 -1765568213 28039133 -1165506120 -283586225 1603770242 1432137968
REM
REM S 3|1.8|5|6|7|30:31:32(qc=5)
REM O 2|1.5|12|13|15|20:21(qc=5)
REM Li 1|1.3|8|9|10|10U:20(qc=5)
REM Fe 3|2.2|2.0|1.0|8|9|10|40:41:32(qc=5)
REM Fe d:4.0 
REM
CELL 1.54180    3.89896    6.75065   28.39061  133.61521  131.33100   54.61168
LATT -1
SFAC Li O  S  Fe 
Li     1  0.3010990000000 -0.1236710000000 -0.3442630000000 1.0  -0.02
Li     1 -0.3010990000000  0.1236710000000  0.3442630000000 1.0  -0.02
Li     1 -0.5421110000000 -0.3031750000000 -0.2560500000000 1.0  -0.02
Li     1  0.5421110000000  0.3031750000000  0.2560500000000 1.0  -0.02
Li     1  0.1854910000000 -0.0754900000000 -0.1430530000000 1.0  -0.02
Li     1 -0.1854910000000  0.0754900000000  0.1430530000000 1.0  -0.02
Li     1  0.0739270000000 -0.4087600000000  0.3183780000000 1.0  -0.00
Li     1 -0.0739270000000  0.4087600000000 -0.3183780000000 1.0  -0.00
O      2 -0.1546610000000 -0.1927830000000 -0.2611920000000 1.0   0.08
O      2  0.1546610000000  0.1927830000000  0.2611920000000 1.0   0.08
S      3 -0.3863390000000 -0.4809340000000  0.1528440000000 1.0   0.10
S      3  0.3863390000000  0.4809340000000 -0.1528440000000 1.0   0.10
S      3  0.5632280000000  0.1441280000000 -0.3390980000000 1.0   0.07
S      3 -0.5632280000000 -0.1441280000000  0.3390980000000 1.0   0.07
S      3  0.1911500000000 -0.1596110000000  0.0490670000000 1.0   0.13
S      3 -0.1911500000000  0.1596110000000 -0.0490670000000 1.0   0.13
Fe     4  0.5138960000000  0.3581070000000  0.0348840000000 1.0   3.85
Fe     4 -0.5138960000000 -0.3581070000000 -0.0348840000000 1.0   3.85
Fe     4 -0.1428240000000  0.2017960000000 -0.2199500000000 1.0   3.83
Fe     4  0.1428240000000 -0.2017960000000  0.2199500000000 1.0   3.83
END
