TITL LFSO-Li4Fe3S3O2-201028-220829-eb93c7 0.0025 487.373523 -1.03469274E+004 -24.0000 24.3409 24 (R3) n - 1
REM
REM Run started: Thu, 29 Oct 2020 05:12:49 +0000 in /lustre/scratch/uccabz1/launch_tmp/launcher_2020-10-28-22-08-27-563097
REM CASTEP 20.1 from code version af48c487+ pr-geom-scf-spinfix Tue Jun 2 15:39:59 2020 +0100
REM Functional Perdew Burke Ernzerhof Relativity Koelling-Harmon Dispersion off
REM Cut-off 340.0000 eV Grid scale 1.7500 Gmax 16.5316 1/A FBSC none
REM MP grid 2 2 2 Offset 0.000 0.000 0.000 No. kpts 2 Spacing 0.07
REM Total runtime: 26244.9 s
REM Overall efficiency: 78.6667 %
REM
REM
REM
REM compiler GCC version 4.9.2
REM options -cpp -iprefix /lustre/shared/ucl/apps/gcc/4.9.2/bin/../lib/gcc/x86_64-unknown-linux-gnu/4.9.2/ -mtune=corei7 -march=x86-64 -g -Og
REM COMMAND_LINE
REM seed -1690387219 1018462139 24457782 -1804446488 190840463 1163972317 12093258 1012970543 -528046045 1089027945 -1583888874 -1720373927
REM
REM S 3|1.8|5|6|7|30:31:32(qc=5)
REM O 2|1.5|12|13|15|20:21(qc=5)
REM Li 1|1.3|8|9|10|10U:20(qc=5)
REM Fe 3|2.2|2.0|1.0|8|9|10|40:41:32(qc=5)
REM Fe d:4.0 
REM
CELL 1.54180    8.46735    8.46735    8.46735   66.27091   66.27091   66.27091
LATT -1
SFAC Li O  S  Fe 
Li     1  0.4247960000000 -0.0263310000000  0.1164850000000 1.0   0.02
Li     1 -0.0263310000000  0.1164850000000  0.4247960000000 1.0   0.02
Li     1  0.1164850000000  0.4247960000000 -0.0263310000000 1.0   0.02
Li     1 -0.1605550000000 -0.5691590000000 -0.1140910000000 1.0   0.02
Li     1 -0.5691590000000 -0.1140910000000 -0.1605550000000 1.0   0.02
Li     1 -0.1140910000000 -0.1605550000000 -0.5691590000000 1.0   0.02
Li     1 -0.0326340000000 -0.0326340000000 -0.0326340000000 1.0   0.05
Li     1 -0.5156640000000 -0.5156640000000 -0.5156640000000 1.0   0.15
O      2  0.5276190000000 -0.2427420000000  0.0290130000000 1.0  -0.21
O      2 -0.2427420000000  0.0290130000000  0.5276190000000 1.0  -0.21
O      2  0.0290130000000  0.5276190000000 -0.2427420000000 1.0  -0.21
O      2  0.3840880000000  0.3840880000000  0.3840880000000 1.0  -0.12
S      3  0.2013870000000 -0.1689230000000  0.3779300000000 1.0  -0.09
S      3 -0.1689230000000  0.3779300000000  0.2013870000000 1.0  -0.09
S      3  0.3779300000000  0.2013870000000 -0.1689230000000 1.0  -0.09
S      3 -0.0677950000000  0.2135160000000 -0.2993480000000 1.0  -0.09
S      3  0.2135160000000 -0.2993480000000 -0.0677950000000 1.0  -0.09
S      3 -0.2993480000000 -0.0677950000000  0.2135160000000 1.0  -0.09
Fe     4  0.1328200000000 -0.2826620000000 -0.3119140000000 1.0  -3.80
Fe     4 -0.2826620000000 -0.3119140000000  0.1328200000000 1.0  -3.80
Fe     4 -0.3119140000000  0.1328200000000 -0.2826620000000 1.0  -3.80
Fe     4  0.3549200000000 -0.3884280000000  0.1782230000000 1.0  -3.87
Fe     4 -0.3884280000000  0.1782230000000  0.3549200000000 1.0  -3.87
Fe     4  0.1782230000000  0.3549200000000 -0.3884280000000 1.0  -3.87
END
