TITL LFSO-Li3FeS2O-201023-053235-1ffcad -0.0278 128.074627 -2.50547418E+003 -4.86352 4.88895 7 (R3) n - 1
REM
REM Run started: Fri, 23 Oct 2020 06:37:25 +0100 in /lustre/scratch/uccabz1/launch_tmp/launcher_2020-10-23-04-32-33-887524
REM CASTEP 20.1 from code version af48c487+ pr-geom-scf-spinfix Tue Jun 2 15:39:59 2020 +0100
REM Functional Perdew Burke Ernzerhof Relativity Koelling-Harmon Dispersion off
REM Cut-off 340.0000 eV Grid scale 1.7500 Gmax 16.5316 1/A FBSC none
REM MP grid 4 4 4 Offset 0.000 0.000 0.000 No. kpts 12 Spacing 0.07
REM Total runtime: 4577.54 s
REM Overall efficiency: 93.375 %
REM
REM
REM
REM compiler GCC version 4.9.2
REM options -cpp -iprefix /lustre/shared/ucl/apps/gcc/4.9.2/bin/../lib/gcc/x86_64-unknown-linux-gnu/4.9.2/ -mtune=corei7 -march=x86-64 -g -Og
REM COMMAND_LINE
REM seed -1259162824 2071972301 333229581 -1732490418 -1023495962 -1055097936 240610981 -75993183 1847083773 1010283584 -1758774977 -453934678
REM
REM S 3|1.8|5|6|7|30:31:32(qc=5)
REM O 2|1.5|12|13|15|20:21(qc=5)
REM Li 1|1.3|8|9|10|10U:20(qc=5)
REM Fe 3|2.2|2.0|1.0|8|9|10|40:41:32(qc=5)
REM Fe d:4.0 
REM
CELL 1.54180    6.03292    6.03292    6.03292   52.53992   52.53992   52.53992
LATT -1
SFAC Li O  S  Fe 
Li     1  0.1232300000000 -0.4145620000000 -0.3094560000000 1.0   0.01
Li     1 -0.4145620000000 -0.3094560000000  0.1232300000000 1.0   0.01
Li     1 -0.3094560000000  0.1232300000000 -0.4145620000000 1.0   0.01
O      2 -0.1342360000000 -0.1342360000000 -0.1342360000000 1.0  -0.25
S      3  0.1248610000000  0.1248610000000  0.1248610000000 1.0  -0.23
S      3  0.3470920000000  0.3470920000000  0.3470920000000 1.0  -0.39
Fe     4 -0.0174450000000 -0.0174450000000 -0.0174450000000 1.0  -4.02
END
