TITL LFSO-Li4Fe3S4O-201030-031827-d41f70 -0.1308 370.675303 -5.03768900E+003 12.0000 12.1900 12 (P2) n - 1
REM
REM Run started: Fri, 30 Oct 2020 07:28:37 +0000 in /lustre/scratch/uccabz1/launch_tmp/launcher_2020-10-30-03-18-25-777328
REM CASTEP 20.1 from code version af48c487+ pr-geom-scf-spinfix Tue Jun 2 15:39:59 2020 +0100
REM Functional Perdew Burke Ernzerhof Relativity Koelling-Harmon Dispersion off
REM Cut-off 340.0000 eV Grid scale 1.7500 Gmax 16.5316 1/A FBSC none
REM MP grid 5 2 2 Offset 0.000 0.000 0.000 No. kpts 5 Spacing 0.07
REM Total runtime: 15745.4 s
REM Overall efficiency: 78 %
REM
REM
REM
REM compiler GCC version 4.9.2
REM options -cpp -iprefix /lustre/shared/ucl/apps/gcc/4.9.2/bin/../lib/gcc/x86_64-unknown-linux-gnu/4.9.2/ -mtune=corei7 -march=x86-64 -g -Og
REM COMMAND_LINE
REM seed 538707709 -61678791 -1748325888 -1998699594 -1106916692 1079110498 -1502061813 -1107921157 1222495125 174549429 1242044050 131833139
REM
REM S 3|1.8|5|6|7|30:31:32(qc=5)
REM O 2|1.5|12|13|15|20:21(qc=5)
REM Li 1|1.3|8|9|10|10U:20(qc=5)
REM Fe 3|2.2|2.0|1.0|8|9|10|40:41:32(qc=5)
REM Fe d:4.0 
REM
CELL 1.54180    3.94242   12.16896    9.24284   90.00000   90.00000  123.28671
LATT -1
SFAC Li O  S  Fe 
Li     1  0.1314370000000 -0.0713280000000 -0.2535390000000 1.0  -0.00
Li     1 -0.1314370000000  0.0713280000000 -0.2535390000000 1.0  -0.00
Li     1  0.7014500000000  0.3206370000000  0.2321260000000 1.0  -0.04
Li     1 -0.7014500000000 -0.3206370000000  0.2321260000000 1.0  -0.04
O      2 -0.0000000000000 -0.5000000000000  0.1753050000000 1.0   0.14
S      3 -0.1697100000000 -0.2958400000000  0.3836250000000 1.0   0.10
S      3  0.1697100000000  0.2958400000000  0.3836250000000 1.0   0.10
S      3 -0.4589150000000  0.1736670000000 -0.2412870000000 1.0   0.11
S      3  0.4589150000000 -0.1736670000000 -0.2412870000000 1.0   0.11
Fe     4 -0.3880800000000  0.2574800000000 -0.4654680000000 1.0   3.84
Fe     4  0.3880800000000 -0.2574800000000 -0.4654680000000 1.0   3.84
Fe     4  0.5000000000000 -0.5000000000000  0.2008480000000 1.0   3.87
END
