TITL LFSO-Li5FeSO3-201026-174805-57e1a9 0.0766 279.026043 -6.95807044E+003 6.15106 7.71939 20 (P-1) n - 1
REM
REM Run started: Wed, 28 Oct 2020 05:30:52 +0000 in /lustre/scratch/uccabz1/launch_tmp/launcher_2020-10-28-00-05-29-698644
REM CASTEP 20.1 from code version af48c487+ pr-geom-scf-spinfix Tue Jun 2 15:39:59 2020 +0100
REM Functional Perdew Burke Ernzerhof Relativity Koelling-Harmon Dispersion off
REM Cut-off 340.0000 eV Grid scale 1.7500 Gmax 16.5316 1/A FBSC none
REM MP grid 3 6 1 Offset 0.000 0.000 0.000 No. kpts 9 Spacing 0.07
REM Total runtime: 20592.4 s
REM Overall efficiency: 91 %
REM
REM
REM
REM compiler GCC version 4.9.2
REM options -cpp -iprefix /lustre/shared/ucl/apps/gcc/4.9.2/bin/../lib/gcc/x86_64-unknown-linux-gnu/4.9.2/ -mtune=corei7 -march=x86-64 -g -Og
REM COMMAND_LINE
REM seed 780594506 1341804586 -161383193 584870664 -1326798408 -857951467 -319401548 -1211081242 -2140592493 227202633 -459353113 1412148170
REM
REM S 3|1.8|5|6|7|30:31:32(qc=5)
REM O 2|1.5|12|13|15|20:21(qc=5)
REM Li 1|1.3|8|9|10|10U:20(qc=5)
REM Fe 3|2.2|2.0|1.0|8|9|10|40:41:32(qc=5)
REM Fe d:4.0 
REM
CELL 1.54180    6.47500    3.05557   17.38091   89.18631  120.67882   73.88314
LATT -1
SFAC Li O  S  Fe 
Li     1 -0.0622440000000 -0.2776150000000  0.2309310000000 1.0  -0.01
Li     1  0.0622440000000  0.2776150000000 -0.2309310000000 1.0  -0.01
Li     1  0.2230720000000  0.0334760000000  0.3999970000000 1.0   0.01
Li     1 -0.2230720000000 -0.0334760000000 -0.3999970000000 1.0   0.01
Li     1  0.0524900000000 -0.2735730000000 -0.0442030000000 1.0   0.00
Li     1 -0.0524900000000  0.2735730000000  0.0442030000000 1.0   0.00
Li     1  0.4369720000000  0.5278530000000  0.1038970000000 1.0  -0.01
Li     1 -0.4369720000000 -0.5278530000000 -0.1038970000000 1.0  -0.01
Li     1 -0.6842510000000  0.0978890000000 -0.0750880000000 1.0   0.01
Li     1  0.6842510000000 -0.0978890000000  0.0750880000000 1.0   0.01
O      2  0.0059290000000  0.3132840000000 -0.3623750000000 1.0   0.07
O      2 -0.0059290000000 -0.3132840000000  0.3623750000000 1.0   0.07
O      2 -0.2599040000000 -0.1199180000000 -0.0283630000000 1.0  -0.09
O      2  0.2599040000000  0.1199180000000  0.0283630000000 1.0  -0.09
O      2  0.2014560000000 -0.3189660000000 -0.1543640000000 1.0  -0.13
O      2 -0.2014560000000  0.3189660000000  0.1543640000000 1.0  -0.13
S      3 -0.4728400000000 -0.0052280000000 -0.3349380000000 1.0  -0.16
S      3  0.4728400000000  0.0052280000000  0.3349380000000 1.0  -0.16
Fe     4  0.2346690000000  0.6738410000000 -0.3501890000000 1.0   3.39
Fe     4 -0.2346690000000 -0.6738410000000  0.3501890000000 1.0   3.39
END
