TITL LFSO-Li6FeS3O-201027-163329-4f60c2 -0.0327 392.054190 -6.82134377E+003 -8.00000 8.26902 22 (P3) n - 1
REM
REM Run started: Tue, 27 Oct 2020 21:49:38 +0000 in /lustre/scratch/uccabz1/launch_tmp/launcher_2020-10-27-16-33-27-627562
REM CASTEP 20.1 from code version af48c487+ pr-geom-scf-spinfix Tue Jun 2 15:39:59 2020 +0100
REM Functional Perdew Burke Ernzerhof Relativity Koelling-Harmon Dispersion off
REM Cut-off 340.0000 eV Grid scale 1.7500 Gmax 16.5316 1/A FBSC none
REM MP grid 2 3 3 Offset 0.000 0.000 0.000 No. kpts 5 Spacing 0.07
REM Total runtime: 20344.2 s
REM Overall efficiency: 75.9167 %
REM
REM
REM
REM compiler GCC version 4.9.2
REM options -cpp -iprefix /lustre/shared/ucl/apps/gcc/4.9.2/bin/../lib/gcc/x86_64-unknown-linux-gnu/4.9.2/ -mtune=corei7 -march=x86-64 -g -Og
REM COMMAND_LINE
REM seed 1176796927 -770280030 -265375066 -1885226723 86663396 -1956696946 856273356 -810968144 267178481 1618256669 -1744590475 665835898
REM
REM S 3|1.8|5|6|7|30:31:32(qc=5)
REM O 2|1.5|12|13|15|20:21(qc=5)
REM Li 1|1.3|8|9|10|10U:20(qc=5)
REM Fe 3|2.2|2.0|1.0|8|9|10|40:41:32(qc=5)
REM Fe d:4.0 
REM
CELL 1.54180    7.75667    7.63959    7.63959  120.00000   90.00000   90.00000
LATT -1
SFAC Li O  S  Fe 
Li     1  0.3589920000000 -0.0548170000000 -0.5377120000000 1.0   0.01
Li     1  0.3589920000000 -0.4828950000000  0.0548170000000 1.0   0.01
Li     1  0.3589920000000  0.5377120000000  0.4828950000000 1.0   0.01
Li     1 -0.3672060000000  0.1135720000000 -0.1356930000000 1.0   0.03
Li     1 -0.3672060000000 -0.2492650000000 -0.1135720000000 1.0   0.03
Li     1 -0.3672060000000  0.1356930000000  0.2492650000000 1.0   0.03
Li     1 -0.0391890000000  0.5340800000000  0.4663750000000 1.0  -0.01
Li     1 -0.0391890000000 -0.0677050000000 -0.5340800000000 1.0  -0.01
Li     1 -0.0391890000000 -0.4663750000000  0.0677050000000 1.0  -0.01
Li     1  0.1104850000000 -0.3966030000000 -0.1972000000000 1.0   0.02
Li     1  0.1104850000000  0.1994030000000  0.3966030000000 1.0   0.02
Li     1  0.1104850000000  0.1972000000000 -0.1994030000000 1.0   0.02
O      2 -0.4632750000000 -0.0000000000000 -0.0000000000000 1.0  -0.07
O      2  0.0992850000000  0.3333330000000 -0.3333330000000 1.0  -0.01
S      3  0.1540860000000 -0.1710390000000 -0.3433690000000 1.0  -0.03
S      3  0.1540860000000 -0.1723300000000  0.1710390000000 1.0  -0.03
S      3  0.1540860000000  0.3433690000000  0.1723300000000 1.0  -0.03
S      3 -0.3399940000000  0.5118880000000  0.5039880000000 1.0  -0.13
S      3 -0.3399940000000 -0.0079000000000 -0.5118880000000 1.0  -0.13
S      3 -0.3399940000000 -0.5039880000000  0.0079000000000 1.0  -0.13
Fe     4 -0.3119690000000  0.3333330000000 -0.3333330000000 1.0  -3.68
Fe     4  0.2792560000000 -0.0000000000000 -0.0000000000000 1.0  -3.87
END
