TITL LFSO-Li3FeS2O-201024-201913-8bdfdb 0.0256 235.082940 -5.00661148E+003 6.95689 7.06016 14 (P3) n - 1
REM
REM Run started: Sun, 25 Oct 2020 01:36:15 +0000 in /scratch/scratch/uccabz1/launch_tmp/launcher_2020-10-24-19-19-11-452693
REM CASTEP 19.11| from code version Version unavailable
REM Functional Perdew Burke Ernzerhof Relativity Koelling-Harmon Dispersion off
REM Cut-off 340.0000 eV Grid scale 1.7500 Gmax 16.5316 1/A FBSC none
REM MP grid 4 4 2 Offset 0.000 0.000 0.000 No. kpts 16 Spacing 0.07
REM Total runtime: 27590.4 s
REM Overall efficiency: 97.3333 %
REM
REM
REM
REM compiler GCC version 4.9.2
REM options -cpp -iprefix /scratch/UCL/applications/gcc/4.9.2/bin/../lib/gcc/x86_64-unknown-linux-gnu/4.9.2/ -mtune=corei7 -march=x86-64 -g -O2
REM COMMAND_LINE
REM seed -1904597547 485098693 -203815118 -83284419 -1544667904 883686713 -1690910086 1489755859 1942042091 992415775 -1101306827 -1458477715
REM
REM S 3|1.8|5|6|7|30:31:32(qc=5)
REM O 2|1.5|12|13|15|20:21(qc=5)
REM Li 1|1.3|8|9|10|10U:20(qc=5)
REM Fe 3|2.2|2.0|1.0|8|9|10|40:41:32(qc=5)
REM Fe d:4.0 
REM
CELL 1.54180    5.25465    5.25465    9.83113   90.00000   90.00000  120.00000
LATT -1
SFAC Li O  S  Fe 
Li     1 -0.2837260000000 -0.0026340000000 -0.0996700000000 1.0  -0.01
Li     1  0.2810930000000  0.2837260000000 -0.0996700000000 1.0  -0.01
Li     1  0.0026340000000 -0.2810930000000 -0.0996700000000 1.0  -0.01
Li     1 -0.1409180000000 -0.3378030000000 -0.4897880000000 1.0  -0.02
Li     1 -0.1968850000000  0.1409180000000 -0.4897880000000 1.0  -0.02
Li     1  0.3378030000000  0.1968850000000 -0.4897880000000 1.0  -0.02
O      2 -0.0000000000000  0.0000000000000  0.4275100000000 1.0   0.01
O      2 -0.3333330000000  0.3333330000000  0.4017310000000 1.0   0.08
S      3 -0.4145100000000 -0.4129290000000 -0.2644820000000 1.0   0.01
S      3  0.0015810000000  0.4145100000000 -0.2644820000000 1.0   0.01
S      3  0.4129290000000 -0.0015810000000 -0.2644820000000 1.0   0.01
S      3 -0.0000000000000  0.0000000000000  0.0947960000000 1.0   0.03
Fe     4 -0.3333330000000  0.3333330000000  0.2104170000000 1.0   3.65
Fe     4  0.3333330000000 -0.3333330000000  0.3255670000000 1.0   3.26
END
