TITL LFSO-Li2FeSO-201024-153941-2c9998 -0.0683 192.534464 -6.01344669E+003 12.0000 12.1019 15 (P3221) n - 1
REM
REM Run started: Sat, 24 Oct 2020 17:40:53 +0100 in /lustre/scratch/uccabz1/launch_tmp/launcher_2020-10-24-14-39-40-140358
REM CASTEP 20.1 from code version af48c487+ pr-geom-scf-spinfix Tue Jun 2 15:39:59 2020 +0100
REM Functional Perdew Burke Ernzerhof Relativity Koelling-Harmon Dispersion off
REM Cut-off 340.0000 eV Grid scale 1.7500 Gmax 16.5316 1/A FBSC none
REM MP grid 3 3 3 Offset 0.000 0.000 0.000 No. kpts 8 Spacing 0.07
REM Total runtime: 7627.18 s
REM Overall efficiency: 83.4444 %
REM
REM
REM
REM compiler GCC version 4.9.2
REM options -cpp -iprefix /lustre/shared/ucl/apps/gcc/4.9.2/bin/../lib/gcc/x86_64-unknown-linux-gnu/4.9.2/ -mtune=corei7 -march=x86-64 -g -Og
REM COMMAND_LINE
REM seed 993372541 -215422166 236102997 -1440263876 2052973331 1565423518 -1062483022 1748297002 666460035 1516772143 -548844016 1714251723
REM
REM S 3|1.8|5|6|7|30:31:32(qc=5)
REM O 2|1.5|12|13|15|20:21(qc=5)
REM Li 1|1.3|8|9|10|10U:20(qc=5)
REM Fe 3|2.2|2.0|1.0|8|9|10|40:41:32(qc=5)
REM Fe d:4.0 
REM
CELL 1.54180    5.70883    5.70883    6.82156   90.00000   90.00000  120.00000
LATT -1
SFAC Li O  S  Fe 
Li     1  0.5007550000000  0.2076100000000 -0.3580500000000 1.0  -0.03
Li     1 -0.2076100000000  0.2931450000000  0.3086160000000 1.0  -0.03
Li     1 -0.2931450000000 -0.5007550000000 -0.0247170000000 1.0  -0.03
Li     1  0.2913730000000 -0.2062430000000  0.3945580000000 1.0  -0.04
Li     1  0.2062430000000 -0.5023840000000  0.0612240000000 1.0  -0.04
Li     1  0.5023840000000 -0.2913730000000 -0.2721090000000 1.0  -0.04
O      2 -0.0020180000000 -0.3345860000000  0.1848610000000 1.0   0.12
O      2  0.3345860000000  0.3325680000000 -0.1484720000000 1.0   0.12
O      2 -0.3325680000000  0.0020180000000 -0.4818060000000 1.0   0.12
S      3 -0.3306120000000 -0.0005640000000  0.0191450000000 1.0   0.11
S      3  0.0005640000000 -0.3300470000000 -0.3141880000000 1.0   0.11
S      3  0.3300470000000  0.3306120000000  0.3524780000000 1.0   0.11
Fe     4 -0.7912060000000 -0.0053280000000  0.0146930000000 1.0   3.84
Fe     4  0.0053280000000  0.2141220000000 -0.3186400000000 1.0   3.84
Fe     4 -0.2141220000000  0.7912060000000  0.3480270000000 1.0   3.84
END
