TITL LFSO-Li2Fe3S3O-201026-030259-d51e2b 0.6900 603.213695 -8.67010432E+003 24.0000 24.3860 18 (Cm) n - 1
REM
REM Run started: Tue, 27 Oct 2020 14:07:49 +0000 in /lustre/scratch/uccabz1/launch_tmp/launcher_2020-10-27-12-23-39-591590
REM CASTEP 20.1 from code version af48c487+ pr-geom-scf-spinfix Tue Jun 2 15:39:59 2020 +0100
REM Functional Perdew Burke Ernzerhof Relativity Koelling-Harmon Dispersion off
REM Cut-off 340.0000 eV Grid scale 1.7500 Gmax 16.5316 1/A FBSC none
REM MP grid 3 3 2 Offset 0.000 0.000 0.000 No. kpts 6 Spacing 0.07
REM Total runtime: 97477.6 s
REM Overall efficiency: 96.25 %
REM
REM
REM
REM compiler GCC version 4.9.2
REM options -cpp -iprefix /lustre/shared/ucl/apps/gcc/4.9.2/bin/../lib/gcc/x86_64-unknown-linux-gnu/4.9.2/ -mtune=corei7 -march=x86-64 -g -Og
REM COMMAND_LINE
REM seed 2144369394 1763401287 1824003502 -637866538 -1104560593 -2050071821 -1881793519 630565901 -1553694801 -355722448 -1019055782 1009274549
REM
REM S 3|1.8|5|6|7|30:31:32(qc=5)
REM O 2|1.5|12|13|15|20:21(qc=5)
REM Li 1|1.3|8|9|10|10U:20(qc=5)
REM Fe 3|2.2|2.0|1.0|8|9|10|40:41:32(qc=5)
REM Fe d:4.0 
REM
CELL 1.54180   14.28004   14.28004    7.14321   90.99166   90.99166  155.44968
LATT -1
SFAC Li O  S  Fe 
Li     1 -0.2725410000000 -0.5856510000000  0.1965900000000 1.0  -0.03
Li     1 -0.5856510000000 -0.2725410000000  0.1965900000000 1.0  -0.03
Li     1 -0.4254980000000  0.1445350000000 -0.1156480000000 1.0  -0.04
Li     1  0.1445350000000 -0.4254980000000 -0.1156480000000 1.0  -0.04
O      2 -0.1563210000000  0.3372900000000 -0.2436850000000 1.0   0.16
O      2  0.3372900000000 -0.1563210000000 -0.2436850000000 1.0   0.16
S      3 -0.5013460000000  0.0798530000000  0.2263380000000 1.0   0.09
S      3  0.0798530000000 -0.5013460000000  0.2263380000000 1.0   0.09
S      3 -0.0189450000000 -0.3578500000000  0.4702620000000 1.0   0.22
S      3 -0.3578500000000 -0.0189450000000  0.4702620000000 1.0   0.22
S      3 -0.3390460000000 -0.0856780000000 -0.0300820000000 1.0   0.12
S      3 -0.0856780000000 -0.3390460000000 -0.0300820000000 1.0   0.12
Fe     4  0.3202040000000 -0.1856830000000  0.4786070000000 1.0   3.81
Fe     4 -0.1856830000000  0.3202040000000  0.4786070000000 1.0   3.81
Fe     4  0.1675190000000 -0.1298170000000  0.2169830000000 1.0   3.80
Fe     4 -0.1298170000000  0.1675190000000  0.2169830000000 1.0   3.80
Fe     4  0.0602360000000 -0.3267770000000 -0.2101070000000 1.0   3.87
Fe     4 -0.3267770000000  0.0602360000000 -0.2101070000000 1.0   3.87
END
