TITL LFSO-Li6FeSO3-201028-063848-04aea0 0.0061 281.459151 -7.35894806E+003 8.00000 8.14652 22 (Pcc2) n - 1
REM
REM Run started: Wed, 28 Oct 2020 07:29:43 +0000 in /lustre/scratch/uccabz1/launch_tmp/launcher_2020-10-28-06-38-47-275178
REM CASTEP 20.1 from code version af48c487+ pr-geom-scf-spinfix Tue Jun 2 15:39:59 2020 +0100
REM Functional Perdew Burke Ernzerhof Relativity Koelling-Harmon Dispersion off
REM Cut-off 340.0000 eV Grid scale 1.7500 Gmax 16.5316 1/A FBSC none
REM MP grid 4 2 3 Offset 0.000 0.000 0.000 No. kpts 4 Spacing 0.07
REM Total runtime: 3203.04 s
REM Overall efficiency: 74.6 %
REM
REM
REM
REM compiler GCC version 4.9.2
REM options -cpp -iprefix /lustre/shared/ucl/apps/gcc/4.9.2/bin/../lib/gcc/x86_64-unknown-linux-gnu/4.9.2/ -mtune=corei7 -march=x86-64 -g -Og
REM COMMAND_LINE
REM seed -576940257 1132302304 -733432469 -1037767672 465879408 -245388842 -270646003 248292807 -1630347265 1053608729 -1256164715 -1915740953
REM
REM S 3|1.8|5|6|7|30:31:32(qc=5)
REM O 2|1.5|12|13|15|20:21(qc=5)
REM Li 1|1.3|8|9|10|10U:20(qc=5)
REM Fe 3|2.2|2.0|1.0|8|9|10|40:41:32(qc=5)
REM Fe d:4.0 
REM
CELL 1.54180    3.69433   12.23645    6.22621   90.00000   90.00000   90.00000
LATT -1
SFAC Li O  S  Fe 
Li     1 -0.4218520000000  0.3077820000000 -0.2318470000000 1.0  -0.04
Li     1  0.4218520000000  0.3077820000000  0.2318470000000 1.0  -0.04
Li     1 -0.4218520000000 -0.1922180000000  0.2318470000000 1.0  -0.04
Li     1  0.4218520000000 -0.1922180000000 -0.2318470000000 1.0  -0.04
Li     1 -0.1366110000000 -0.0389220000000 -0.2011260000000 1.0   0.02
Li     1  0.1366110000000 -0.0389220000000  0.2011260000000 1.0   0.02
Li     1 -0.1366110000000  0.4610780000000  0.2011260000000 1.0   0.02
Li     1  0.1366110000000  0.4610780000000 -0.2011260000000 1.0   0.02
Li     1 -0.2805760000000 -0.3976590000000 -0.1113710000000 1.0  -0.01
Li     1  0.2805760000000 -0.3976590000000  0.1113710000000 1.0  -0.01
Li     1 -0.2805760000000  0.1023410000000  0.1113710000000 1.0  -0.01
Li     1  0.2805760000000  0.1023410000000 -0.1113710000000 1.0  -0.01
O      2  0.2012320000000  0.1279760000000  0.2184070000000 1.0   0.09
O      2 -0.2012320000000  0.1279760000000 -0.2184070000000 1.0   0.09
O      2  0.2012320000000 -0.3720240000000 -0.2184070000000 1.0   0.09
O      2 -0.2012320000000 -0.3720240000000  0.2184070000000 1.0   0.09
O      2  0.5000000000000 -0.0796300000000 -0.0000000000000 1.0   0.01
O      2 -0.5000000000000  0.4203700000000 -0.0000000000000 1.0   0.01
S      3  0.0000000000000 -0.1450410000000  0.5000000000000 1.0   0.13
S      3  0.0000000000000  0.3549590000000  0.5000000000000 1.0   0.13
Fe     4  0.0000000000000 -0.3366280000000 -0.5000000000000 1.0   3.74
Fe     4  0.0000000000000  0.1633720000000 -0.5000000000000 1.0   3.74
END
