TITL LFSO-Li6FeSO3-201028-090155-2f4db1 0.0760 324.074891 -7.35935595E+003 8.00000 8.32098 22 (P3) n - 1
REM
REM Run started: Wed, 28 Oct 2020 17:06:38 +0000 in /scratch/scratch/uccabz1/launch_tmp/launcher_2020-10-28-09-01-54-296600
REM CASTEP 19.11| from code version Version unavailable
REM Functional Perdew Burke Ernzerhof Relativity Koelling-Harmon Dispersion off
REM Cut-off 340.0000 eV Grid scale 1.7500 Gmax 16.5316 1/A FBSC none
REM MP grid 3 3 2 Offset 0.000 0.000 0.000 No. kpts 5 Spacing 0.07
REM Total runtime: 29141.9 s
REM Overall efficiency: 68.4 %
REM
REM
REM
REM compiler GCC version 4.9.2
REM options -cpp -iprefix /scratch/UCL/applications/gcc/4.9.2/bin/../lib/gcc/x86_64-unknown-linux-gnu/4.9.2/ -mtune=corei7 -march=x86-64 -g -O2
REM COMMAND_LINE
REM seed -1820387297 174514821 593645539 -74973021 482535513 -747829127 -2063757095 46794024 1141478226 -766679687 192022748 -1198328164
REM
REM S 3|1.8|5|6|7|30:31:32(qc=5)
REM O 2|1.5|12|13|15|20:21(qc=5)
REM Li 1|1.3|8|9|10|10U:20(qc=5)
REM Fe 3|2.2|2.0|1.0|8|9|10|40:41:32(qc=5)
REM Fe d:4.0 
REM
CELL 1.54180    6.58737    6.58737    8.62364   90.00000   90.00000  120.00000
LATT -1
SFAC Li O  S  Fe 
Li     1 -0.2993650000000 -0.0800090000000 -0.2993290000000 1.0  -0.02
Li     1  0.2193560000000  0.2993650000000 -0.2993290000000 1.0  -0.02
Li     1  0.0800090000000 -0.2193560000000 -0.2993290000000 1.0  -0.02
Li     1  0.3011450000000  0.0838650000000  0.5115110000000 1.0  -0.02
Li     1 -0.2172810000000 -0.3011450000000  0.5115110000000 1.0  -0.02
Li     1 -0.0838650000000  0.2172810000000  0.5115110000000 1.0  -0.02
Li     1  0.2491030000000  0.3371070000000  0.2559500000000 1.0  -0.02
Li     1  0.0880040000000 -0.2491030000000  0.2559500000000 1.0  -0.02
Li     1 -0.3371070000000 -0.0880040000000  0.2559500000000 1.0  -0.02
Li     1  0.2781960000000 -0.0270220000000 -0.0363140000000 1.0  -0.02
Li     1 -0.3052180000000 -0.2781960000000 -0.0363140000000 1.0  -0.02
Li     1  0.0270220000000  0.3052180000000 -0.0363140000000 1.0  -0.02
O      2 -0.3409980000000 -0.0904170000000  0.4728130000000 1.0   0.11
O      2  0.2505810000000  0.3409980000000  0.4728130000000 1.0   0.11
O      2  0.0904170000000 -0.2505810000000  0.4728130000000 1.0   0.11
O      2 -0.2514490000000 -0.3410790000000 -0.2481820000000 1.0   0.11
O      2 -0.0896300000000  0.2514490000000 -0.2481820000000 1.0   0.11
O      2  0.3410790000000  0.0896300000000 -0.2481820000000 1.0   0.11
S      3  0.3333330000000 -0.3333330000000  0.0825690000000 1.0   0.00
S      3 -0.0000000000000  0.0000000000000  0.1195840000000 1.0   0.00
Fe     4 -0.3333330000000  0.3333330000000 -0.2304500000000 1.0   3.78
Fe     4  0.3333330000000 -0.3333330000000 -0.5207390000000 1.0   3.78
END
