TITL LFSO-Li6FeSO3-201028-065928-44b241 -0.0138 160.040899 -3.67696374E+003 3.95343 4.10224 11 (P-4) n - 1
REM
REM Run started: Wed, 28 Oct 2020 07:15:17 +0000 in /scratch/scratch/uccabz1/launch_tmp/launcher_2020-10-28-06-59-26-455576
REM CASTEP 19.11| from code version Version unavailable
REM Functional Perdew Burke Ernzerhof Relativity Koelling-Harmon Dispersion off
REM Cut-off 340.0000 eV Grid scale 1.7500 Gmax 16.5316 1/A FBSC none
REM MP grid 3 3 4 Offset 0.000 0.000 0.000 No. kpts 6 Spacing 0.07
REM Total runtime: 1359.54 s
REM Overall efficiency: 88.2 %
REM
REM
REM
REM compiler GCC version 4.9.2
REM options -cpp -iprefix /scratch/UCL/applications/gcc/4.9.2/bin/../lib/gcc/x86_64-unknown-linux-gnu/4.9.2/ -mtune=corei7 -march=x86-64 -g -O2
REM COMMAND_LINE
REM seed -2089145029 1950412441 1760762130 1964515281 -921464090 1692402909 986127145 1714118557 -1828264558 -380611136 -1361303397 413665305
REM
REM S 3|1.8|5|6|7|30:31:32(qc=5)
REM O 2|1.5|12|13|15|20:21(qc=5)
REM Li 1|1.3|8|9|10|10U:20(qc=5)
REM Fe 3|2.2|2.0|1.0|8|9|10|40:41:32(qc=5)
REM Fe d:4.0 
REM
CELL 1.54180    6.62212    6.62212    3.64953   90.00000   90.00000   90.00000
LATT -1
SFAC Li O  S  Fe 
Li     1  0.3492090000000  0.2387720000000  0.1189360000000 1.0  -0.01
Li     1 -0.3492090000000 -0.2387720000000  0.1189360000000 1.0  -0.01
Li     1 -0.2387720000000  0.3492090000000 -0.1189360000000 1.0  -0.01
Li     1  0.2387720000000 -0.3492090000000 -0.1189360000000 1.0  -0.01
Li     1  0.5000000000000  0.0000000000000 -0.3843570000000 1.0  -0.07
Li     1  0.0000000000000  0.5000000000000  0.3843570000000 1.0  -0.07
O      2  0.0000000000000 -0.5000000000000 -0.1122260000000 1.0   0.11
O      2 -0.5000000000000  0.0000000000000  0.1122260000000 1.0   0.11
O      2  0.0000000000000  0.0000000000000  0.0000000000000 1.0   0.12
S      3  0.5000000000000 -0.5000000000000  0.5000000000000 1.0   0.04
Fe     4  0.0000000000000  0.0000000000000 -0.5000000000000 1.0   3.76
END
