TITL LFSO-Li2FeSO-201024-203534-847406 -0.0120 506.648878 -8.01236296E+003 16.0000 16.2119 20 (Pc) n - 1
REM
REM Run started: Sun, 25 Oct 2020 03:52:49 +0000 in /scratch/scratch/uccabz1/launch_tmp/launcher_2020-10-24-19-35-32-235209
REM CASTEP 19.11| from code version Version unavailable
REM Functional Perdew Burke Ernzerhof Relativity Koelling-Harmon Dispersion off
REM Cut-off 340.0000 eV Grid scale 1.7500 Gmax 16.5316 1/A FBSC none
REM MP grid 2 3 2 Offset 0.000 0.000 0.000 No. kpts 3 Spacing 0.07
REM Total runtime: 32161 s
REM Overall efficiency: 88.0833 %
REM
REM
REM
REM compiler GCC version 4.9.2
REM options -cpp -iprefix /scratch/UCL/applications/gcc/4.9.2/bin/../lib/gcc/x86_64-unknown-linux-gnu/4.9.2/ -mtune=corei7 -march=x86-64 -g -O2
REM COMMAND_LINE
REM seed 396203298 1176073432 998068034 692656462 606967840 618799340 1740519827 -598922939 119966682 215596741 295338121 -981573556
REM
REM S 3|1.8|5|6|7|30:31:32(qc=5)
REM O 2|1.5|12|13|15|20:21(qc=5)
REM Li 1|1.3|8|9|10|10U:20(qc=5)
REM Fe 3|2.2|2.0|1.0|8|9|10|40:41:32(qc=5)
REM Fe d:4.0 
REM
CELL 1.54180    7.73888    6.77120   10.75686  115.99524   90.00000   90.00000
LATT -1
SFAC Li O  S  Fe 
Li     1  0.2911090000000  0.2757610000000  0.3146440000000 1.0  -0.04
Li     1 -0.2911090000000 -0.2242390000000  0.3146440000000 1.0  -0.04
Li     1  0.0896640000000  0.0282950000000 -0.3663810000000 1.0  -0.00
Li     1 -0.0896640000000  0.5282950000000 -0.3663810000000 1.0  -0.00
Li     1  0.5065340000000 -0.0337400000000 -0.2515690000000 1.0   0.00
Li     1 -0.5065340000000  0.4662600000000 -0.2515690000000 1.0   0.00
Li     1 -0.2520740000000 -0.1785860000000  0.0106720000000 1.0  -0.01
Li     1  0.2520740000000  0.3214140000000  0.0106720000000 1.0  -0.01
O      2  0.2494310000000 -0.0094300000000  0.3009910000000 1.0   0.19
O      2 -0.2494310000000 -0.5094300000000  0.3009910000000 1.0   0.19
O      2 -0.2171180000000 -0.0753890000000  0.1955560000000 1.0   0.18
O      2  0.2171180000000  0.4246110000000  0.1955560000000 1.0   0.18
S      3 -0.1658160000000  0.1398020000000 -0.4937160000000 1.0   0.20
S      3  0.1658160000000 -0.3601980000000 -0.4937160000000 1.0   0.20
S      3 -0.3046610000000 -0.2633990000000 -0.2138560000000 1.0   0.02
S      3  0.3046610000000  0.2366010000000 -0.2138560000000 1.0   0.02
Fe     4 -0.0047420000000 -0.5130690000000  0.2924240000000 1.0   3.69
Fe     4  0.0047420000000 -0.0130690000000  0.2924240000000 1.0   3.69
Fe     4  0.2692100000000 -0.2669070000000  0.3288600000000 1.0   3.78
Fe     4 -0.2692100000000  0.2330930000000  0.3288600000000 1.0   3.78
END
