TITL LFSO-Li2FeSO-201025-082311-1a5bf6 0.0157 81.672062 -2.00167729E+003 4.00000 4.02901 5 (Pm) n - 1
REM
REM Run started: Sun, 25 Oct 2020 08:49:58 +0000 in /lustre/scratch/uccabz1/launch_tmp/launcher_2020-10-25-08-23-10-105761
REM CASTEP 20.1 from code version af48c487+ pr-geom-scf-spinfix Tue Jun 2 15:39:59 2020 +0100
REM Functional Perdew Burke Ernzerhof Relativity Koelling-Harmon Dispersion off
REM Cut-off 340.0000 eV Grid scale 1.7500 Gmax 16.5316 1/A FBSC none
REM MP grid 5 4 3 Offset 0.000 0.000 0.000 No. kpts 16 Spacing 0.07
REM Total runtime: 1648.53 s
REM Overall efficiency: 77.5556 %
REM
REM
REM
REM compiler GCC version 4.9.2
REM options -cpp -iprefix /lustre/shared/ucl/apps/gcc/4.9.2/bin/../lib/gcc/x86_64-unknown-linux-gnu/4.9.2/ -mtune=corei7 -march=x86-64 -g -Og
REM COMMAND_LINE
REM seed 218554181 -870555339 638988933 -69375300 -1700611045 -1896622202 -570833939 -1931148215 -857770583 -1874222572 -1452331874 -363549401
REM
REM S 3|1.8|5|6|7|30:31:32(qc=5)
REM O 2|1.5|12|13|15|20:21(qc=5)
REM Li 1|1.3|8|9|10|10U:20(qc=5)
REM Fe 3|2.2|2.0|1.0|8|9|10|40:41:32(qc=5)
REM Fe d:4.0 
REM
CELL 1.54180    3.82666    3.86292    6.12929   90.00000  115.65451   90.00000
LATT -1
SFAC Li O  S  Fe 
Li     1 -0.3392960000000 -0.2610400000000 -0.2763480000000 1.0  -0.00
Li     1 -0.3392960000000  0.2610400000000 -0.2763480000000 1.0  -0.00
O      2 -0.4989770000000  0.5000000000000  0.4312120000000 1.0   0.09
S      3  0.2605640000000  0.0000000000000 -0.1303570000000 1.0   0.07
Fe     4  0.4502900000000  0.0000000000000  0.2862450000000 1.0   3.84
END
