TITL LFSO-Li5FeSO3-201026-194118-90af21 0.0433 324.177762 -6.95257985E+003 -10.6670 10.8580 20 (P3) n - 1
REM
REM Run started: Mon, 26 Oct 2020 22:23:27 +0000 in /scratch/scratch/uccabz1/launch_tmp/launcher_2020-10-26-19-41-16-975658
REM CASTEP 19.11| from code version Version unavailable
REM Functional Perdew Burke Ernzerhof Relativity Koelling-Harmon Dispersion off
REM Cut-off 340.0000 eV Grid scale 1.7500 Gmax 16.5316 1/A FBSC none
REM MP grid 3 2 2 Offset 0.000 0.000 0.000 No. kpts 6 Spacing 0.07
REM Total runtime: 10099.3 s
REM Overall efficiency: 76.6154 %
REM
REM
REM
REM compiler GCC version 4.9.2
REM options -cpp -iprefix /scratch/UCL/applications/gcc/4.9.2/bin/../lib/gcc/x86_64-unknown-linux-gnu/4.9.2/ -mtune=corei7 -march=x86-64 -g -O2
REM COMMAND_LINE
REM seed 1374090045 1824353488 -1885600503 -995706185 -117962239 -1361457523 -129483521 -436504347 824898107 169974955 -1597220707 -2085722862
REM
REM S 3|1.8|5|6|7|30:31:32(qc=5)
REM O 2|1.5|12|13|15|20:21(qc=5)
REM Li 1|1.3|8|9|10|10U:20(qc=5)
REM Fe 3|2.2|2.0|1.0|8|9|10|40:41:32(qc=5)
REM Fe d:4.0 
REM
CELL 1.54180    5.15481    8.52158    8.52158  120.00000   90.00000   90.00000
LATT -1
SFAC Li O  S  Fe 
Li     1 -0.1105110000000  0.4471180000000  0.5151900000000 1.0   0.05
Li     1 -0.1105110000000  0.0680720000000 -0.4471180000000 1.0   0.05
Li     1 -0.1105110000000 -0.5151900000000 -0.0680720000000 1.0   0.05
Li     1  0.1181300000000 -0.2445580000000 -0.0157660000000 1.0  -0.01
Li     1  0.1181300000000  0.2287920000000  0.2445580000000 1.0  -0.01
Li     1  0.1181300000000  0.0157660000000 -0.2287920000000 1.0  -0.01
Li     1 -0.3496780000000  0.0921110000000  0.2838350000000 1.0   0.04
Li     1 -0.3496780000000  0.1917240000000 -0.0921110000000 1.0   0.04
Li     1 -0.3496780000000 -0.2838350000000 -0.1917240000000 1.0   0.04
Li     1  0.0887440000000  0.3333330000000 -0.3333330000000 1.0   0.00
O      2  0.0128460000000 -0.5306160000000 -0.6837110000000 1.0  -0.23
O      2  0.0128460000000 -0.1530950000000  0.5306160000000 1.0  -0.23
O      2  0.0128460000000  0.6837110000000  0.1530950000000 1.0  -0.23
O      2 -0.0536860000000 -0.4184940000000 -0.2312150000000 1.0  -0.40
O      2 -0.0536860000000  0.1872790000000  0.4184940000000 1.0  -0.40
O      2 -0.0536860000000  0.2312150000000 -0.1872790000000 1.0  -0.40
S      3  0.5456570000000  0.3333330000000 -0.3333330000000 1.0  -1.04
S      3  0.4258690000000 -0.0000000000000  0.0000000000000 1.0  -0.04
Fe     4 -0.7571260000000 -0.3333330000000  0.3333330000000 1.0  -3.98
Fe     4 -0.2083700000000 -0.3333330000000  0.3333330000000 1.0  -3.96
END
