TITL LFSO-Li4Fe3S3O2-201029-084822-3bd909 0.0151 300.853745 -5.17151339E+003 4.00013 11.6655 12 (Pmmm) n - 1
REM
REM Run started: Thu, 29 Oct 2020 09:33:10 +0000 in /lustre/scratch/uccabz1/launch_tmp/launcher_2020-10-29-08-48-20-407204
REM CASTEP 20.1 from code version af48c487+ pr-geom-scf-spinfix Tue Jun 2 15:39:59 2020 +0100
REM Functional Perdew Burke Ernzerhof Relativity Koelling-Harmon Dispersion off
REM Cut-off 340.0000 eV Grid scale 1.7500 Gmax 16.5316 1/A FBSC none
REM MP grid 4 2 2 Offset 0.000 0.000 0.000 No. kpts 2 Spacing 0.07
REM Total runtime: 2932.15 s
REM Overall efficiency: 71.6667 %
REM
REM
REM
REM compiler GCC version 4.9.2
REM options -cpp -iprefix /lustre/shared/ucl/apps/gcc/4.9.2/bin/../lib/gcc/x86_64-unknown-linux-gnu/4.9.2/ -mtune=corei7 -march=x86-64 -g -Og
REM COMMAND_LINE
REM seed -1903815317 -1575621540 -741653765 547987826 -847196468 1385473328 -96127761 318654088 -1316654182 -356597189 -747509951 -858499846
REM
REM S 3|1.8|5|6|7|30:31:32(qc=5)
REM O 2|1.5|12|13|15|20:21(qc=5)
REM Li 1|1.3|8|9|10|10U:20(qc=5)
REM Fe 3|2.2|2.0|1.0|8|9|10|40:41:32(qc=5)
REM Fe d:4.0 
REM
CELL 1.54180    4.17662    8.28262    8.69687   90.00000   90.00000   90.00000
LATT -1
SFAC Li O  S  Fe 
Li     1  0.5974470000000 -0.1743910000000  0.2044220000000 1.0  -0.01
Li     1  0.5974470000000  0.1743910000000 -0.2044220000000 1.0  -0.01
Li     1  0.5974470000000  0.1743910000000  0.2044220000000 1.0  -0.01
Li     1  0.5974470000000 -0.1743910000000 -0.2044220000000 1.0  -0.01
O      2 -0.4127520000000  0.2600050000000 -0.0000000000000 1.0   0.11
O      2 -0.4127520000000 -0.2600050000000  0.0000000000000 1.0   0.11
S      3  0.0899880000000  0.0000000000000 -0.1975040000000 1.0  -0.02
S      3  0.0899880000000  0.0000000000000  0.1975040000000 1.0  -0.02
S      3 -0.4049120000000 -0.0000000000000  0.5000000000000 1.0  -0.16
Fe     4  0.0854300000000 -0.2269830000000  0.0000000000000 1.0   3.78
Fe     4  0.0854300000000  0.2269830000000  0.0000000000000 1.0   3.78
Fe     4  0.0960140000000 -0.0000000000000  0.5000000000000 1.0  -3.53
END
