TITL LFSO-Li2Fe3S3O-201026-123441-505f3f 0.3836 449.361292 -8.66137027E+003 -18.4068 21.7281 18 (P3) n - 1
REM
REM Run started: Tue, 27 Oct 2020 13:38:25 +0000 in /lustre/scratch/uccabz1/launch_tmp/launcher_2020-10-27-00-39-59-808031
REM CASTEP 20.1 from code version af48c487+ pr-geom-scf-spinfix Tue Jun 2 15:39:59 2020 +0100
REM Functional Perdew Burke Ernzerhof Relativity Koelling-Harmon Dispersion off
REM Cut-off 340.0000 eV Grid scale 1.7500 Gmax 16.5316 1/A FBSC none
REM MP grid 3 3 2 Offset 0.000 0.000 0.000 No. kpts 5 Spacing 0.07
REM Total runtime: 60943.1 s
REM Overall efficiency: 85.9231 %
REM
REM
REM
REM compiler GCC version 4.9.2
REM options -cpp -iprefix /lustre/shared/ucl/apps/gcc/4.9.2/bin/../lib/gcc/x86_64-unknown-linux-gnu/4.9.2/ -mtune=corei7 -march=x86-64 -g -Og
REM COMMAND_LINE
REM seed 1816793040 262291246 635585230 329239427 -1119180430 1014358096 -938385663 -467272565 -1984160025 -111232294 -1126718622 -64549646
REM
REM S 3|1.8|5|6|7|30:31:32(qc=5)
REM O 2|1.5|12|13|15|20:21(qc=5)
REM Li 1|1.3|8|9|10|10U:20(qc=5)
REM Fe 3|2.2|2.0|1.0|8|9|10|40:41:32(qc=5)
REM Fe d:4.0 
REM
CELL 1.54180    6.04174    6.04174   14.21482   90.00000   90.00000  120.00000
LATT -1
SFAC Li O  S  Fe 
Li     1 -0.3801760000000 -0.1912040000000 -0.1838310000000 1.0   0.09
Li     1  0.1912040000000 -0.1889710000000 -0.1838310000000 1.0   0.09
Li     1  0.1889710000000  0.3801760000000 -0.1838310000000 1.0   0.09
Li     1 -0.3333340000000  0.3333340000000 -0.1649700000000 1.0   0.05
O      2  0.3333330000000 -0.3333330000000  0.1035470000000 1.0  -0.13
O      2  0.3333330000000 -0.3333330000000 -0.0875370000000 1.0   0.02
S      3 -0.0449840000000 -0.5139090000000 -0.2970660000000 1.0   0.36
S      3  0.5139090000000  0.4689260000000 -0.2970660000000 1.0   0.36
S      3 -0.4689260000000  0.0449840000000 -0.2970660000000 1.0   0.36
S      3 -0.2887770000000  0.0477990000000  0.2582610000000 1.0   0.05
S      3 -0.0477990000000 -0.3365750000000  0.2582610000000 1.0   0.05
S      3  0.3365750000000  0.2887770000000  0.2582610000000 1.0   0.05
Fe     4  0.0436590000000  0.3743660000000  0.1808520000000 1.0  -3.51
Fe     4 -0.3743660000000 -0.3307060000000  0.1808520000000 1.0  -3.51
Fe     4  0.3307060000000 -0.0436590000000  0.1808520000000 1.0  -3.51
Fe     4 -0.3149500000000 -0.1312130000000 -0.0004140000000 1.0  -3.11
Fe     4  0.1312130000000 -0.1837360000000 -0.0004140000000 1.0  -3.11
Fe     4  0.1837360000000  0.3149500000000 -0.0004140000000 1.0  -3.11
END
