TITL LFSO-Li5FeSO3-201027-003043-bcf493 -0.0044 368.235416 -6.95741310E+003 -4.67939 6.98046 20 (R3) n - 1
REM
REM Run started: Tue, 27 Oct 2020 21:39:59 +0000 in /lustre/scratch/uccabz1/launch_tmp/launcher_2020-10-27-00-30-40-971953
REM CASTEP 20.1 from code version af48c487+ pr-geom-scf-spinfix Tue Jun 2 15:39:59 2020 +0100
REM Functional Perdew Burke Ernzerhof Relativity Koelling-Harmon Dispersion off
REM Cut-off 340.0000 eV Grid scale 1.7500 Gmax 16.5316 1/A FBSC none
REM MP grid 3 3 3 Offset 0.000 0.000 0.000 No. kpts 6 Spacing 0.07
REM Total runtime: 65995.4 s
REM Overall efficiency: 97.4167 %
REM
REM
REM
REM compiler GCC version 4.9.2
REM options -cpp -iprefix /lustre/shared/ucl/apps/gcc/4.9.2/bin/../lib/gcc/x86_64-unknown-linux-gnu/4.9.2/ -mtune=corei7 -march=x86-64 -g -Og
REM COMMAND_LINE
REM seed 1707712678 -1600454186 299157185 -696538315 -1868551540 -1008805780 -304740281 -854075561 1836843072 368949107 -193628848 -236241269
REM
REM S 3|1.8|5|6|7|30:31:32(qc=5)
REM O 2|1.5|12|13|15|20:21(qc=5)
REM Li 1|1.3|8|9|10|10U:20(qc=5)
REM Fe 3|2.2|2.0|1.0|8|9|10|40:41:32(qc=5)
REM Fe d:4.0 
REM
CELL 1.54180   10.94056   10.94056   10.94056   34.16529   34.16529   34.16529
LATT -1
SFAC Li O  S  Fe 
Li     1  0.1068410000000  0.6255360000000 -0.0202060000000 1.0  -0.03
Li     1  0.6255360000000 -0.0202060000000  0.1068410000000 1.0  -0.03
Li     1 -0.0202060000000  0.1068410000000  0.6255360000000 1.0  -0.03
Li     1  0.2097350000000 -0.1890670000000  0.5067880000000 1.0   0.04
Li     1 -0.1890670000000  0.5067880000000  0.2097350000000 1.0   0.04
Li     1  0.5067880000000  0.2097350000000 -0.1890670000000 1.0   0.04
Li     1  0.2762810000000 -0.0229930000000 -0.3022050000000 1.0   0.02
Li     1 -0.0229930000000 -0.3022050000000  0.2762810000000 1.0   0.02
Li     1 -0.3022050000000  0.2762810000000 -0.0229930000000 1.0   0.02
Li     1  0.2154060000000  0.2154060000000  0.2154060000000 1.0  -0.01
O      2  0.4216850000000 -0.0613340000000  0.1470540000000 1.0   0.02
O      2 -0.0613340000000  0.1470540000000  0.4216850000000 1.0   0.02
O      2  0.1470540000000  0.4216850000000 -0.0613340000000 1.0   0.02
O      2 -0.3198070000000  0.2575860000000 -0.1802510000000 1.0  -0.04
O      2  0.2575860000000 -0.1802510000000 -0.3198070000000 1.0  -0.04
O      2 -0.1802510000000 -0.3198070000000  0.2575860000000 1.0  -0.04
S      3  0.2981960000000  0.2981960000000  0.2981960000000 1.0   0.17
S      3  0.0494850000000  0.0494850000000  0.0494850000000 1.0  -0.09
Fe     4 -0.4158240000000 -0.4158240000000 -0.4158240000000 1.0  -3.56
Fe     4  0.1307440000000  0.1307440000000  0.1307440000000 1.0  -1.20
END
