TITL LFSO-LiFe3S4O-201028-124406-795a50 0.0053 405.663550 -8.87167673E+003 25.6907 25.9368 18 (C2) n - 1
REM
REM Run started: Thu, 29 Oct 2020 11:08:33 +0000 in /scratch/scratch/uccabz1/launch_tmp/launcher_2020-10-28-12-44-05-040738
REM CASTEP 19.11| from code version Version unavailable
REM Functional Perdew Burke Ernzerhof Relativity Koelling-Harmon Dispersion off
REM Cut-off 340.0000 eV Grid scale 1.7500 Gmax 16.5316 1/A FBSC none
REM MP grid 5 2 2 Offset 0.000 0.000 0.000 No. kpts 10 Spacing 0.07
REM Total runtime: 81029 s
REM Overall efficiency: 75.5 %
REM
REM
REM
REM compiler GCC version 4.9.2
REM options -cpp -iprefix /scratch/UCL/applications/gcc/4.9.2/bin/../lib/gcc/x86_64-unknown-linux-gnu/4.9.2/ -mtune=corei7 -march=x86-64 -g -O2
REM COMMAND_LINE
REM seed 2082149473 324995774 1638392665 -1619735771 -613505426 -341900852 1266589559 -1312431680 81963853 893174884 625201074 1601988962
REM
REM S 3|1.8|5|6|7|30:31:32(qc=5)
REM O 2|1.5|12|13|15|20:21(qc=5)
REM Li 1|1.3|8|9|10|10U:20(qc=5)
REM Fe 3|2.2|2.0|1.0|8|9|10|40:41:32(qc=5)
REM Fe d:4.0 
REM
CELL 1.54180    3.84207   10.67747   12.20126   64.05193   79.07429   64.33113
LATT -1
SFAC Li O  S  Fe 
Li     1  0.5000000000000  0.2129810000000  0.5740370000000 1.0  -0.08
Li     1  0.5000000000000 -0.0247180000000  0.0494370000000 1.0   0.02
O      2  0.0000000000000  0.2014760000000 -0.4029520000000 1.0   1.27
O      2 -0.5000000000000 -0.2803760000000 -0.4392490000000 1.0   0.33
S      3 -0.2123540000000  0.0325360000000  0.4730030000000 1.0   0.24
S      3  0.2123540000000  0.4944610000000  0.4730030000000 1.0   0.24
S      3  0.1192980000000 -0.1066100000000 -0.1663670000000 1.0  -0.01
S      3 -0.1192980000000  0.2729770000000 -0.1663670000000 1.0  -0.01
S      3  0.5000000000000 -0.1280220000000  0.2560440000000 1.0   0.37
S      3  0.0000000000000 -0.3995130000000 -0.2009750000000 1.0   0.16
S      3  0.0000000000000  0.4472560000000  0.1054880000000 1.0   0.14
S      3  0.5000000000000  0.0805330000000 -0.1610660000000 1.0   0.02
Fe     4  0.4472950000000 -0.0730710000000  0.4212150000000 1.0   3.90
Fe     4 -0.4472950000000 -0.3481450000000  0.4212150000000 1.0   3.90
Fe     4  0.5473980000000 -0.3555340000000 -0.0388900000000 1.0   3.77
Fe     4 -0.5473980000000  0.3944240000000 -0.0388900000000 1.0   3.77
Fe     4  0.1084130000000 -0.1708560000000 -0.3371130000000 1.0   3.83
Fe     4 -0.1084130000000 -0.4920310000000 -0.3371130000000 1.0   3.83
END
