TITL LFSO-Li3FeS2O-201025-022035-1e72a1 0.0061 289.357507 -5.01134819E+003 9.99783 10.2081 14 (R3) n - 1
REM
REM Run started: Sun, 25 Oct 2020 04:52:05 +0000 in /scratch/scratch/uccabz1/launch_tmp/launcher_2020-10-25-02-23-03-913278
REM CASTEP 19.11| from code version Version unavailable
REM Functional Perdew Burke Ernzerhof Relativity Koelling-Harmon Dispersion off
REM Cut-off 340.0000 eV Grid scale 1.7500 Gmax 16.5316 1/A FBSC none
REM MP grid 3 3 3 Offset 0.000 0.000 0.000 No. kpts 6 Spacing 0.07
REM Total runtime: 10168.9 s
REM Overall efficiency: 97 %
REM
REM
REM
REM compiler GCC version 4.9.2
REM options -cpp -iprefix /lustre/shared/ucl/apps/gcc/4.9.2/bin/../lib/gcc/x86_64-unknown-linux-gnu/4.9.2/ -mtune=corei7 -march=x86-64 -g -Og
REM COMMAND_LINE
REM seed -1658807168 -768970790 -1331253771 -806006082 -1526230573 -1938725698 811392934 131815009 3957963 -2121094304 -1811398892 845011281
REM
REM S 3|1.8|5|6|7|30:31:32(qc=5)
REM O 2|1.5|12|13|15|20:21(qc=5)
REM Li 1|1.3|8|9|10|10U:20(qc=5)
REM Fe 3|2.2|2.0|1.0|8|9|10|40:41:32(qc=5)
REM Fe d:4.0 
REM
CELL 1.54180    7.54968    7.54968    7.30495   58.88549   58.88549   60.00000
LATT -1
SFAC Li O  S  Fe 
Li     1  0.2302300000000  0.2535950000000 -0.3794870000000 1.0  -0.10
Li     1  0.2535950000000 -0.1043380000000 -0.3794870000000 1.0  -0.10
Li     1 -0.1043380000000  0.2302300000000 -0.3794870000000 1.0  -0.10
Li     1 -0.4770370000000  0.1349180000000  0.2186300000000 1.0   0.05
Li     1  0.1349180000000  0.1234890000000  0.2186300000000 1.0   0.05
Li     1  0.1234890000000 -0.4770370000000  0.2186300000000 1.0   0.05
O      2  0.0686050000000  0.0686050000000 -0.2058150000000 1.0   0.78
O      2  0.2009770000000  0.2009770000000  0.3970700000000 1.0   0.34
S      3  0.2570620000000 -0.2809630000000  0.2934710000000 1.0   0.30
S      3 -0.2809630000000 -0.2695700000000  0.2934710000000 1.0   0.30
S      3 -0.2695700000000  0.2570620000000  0.2934710000000 1.0   0.30
S      3  0.3752980000000  0.3752980000000 -0.1258950000000 1.0   0.39
Fe     4 -0.5007640000000 -0.5007640000000  0.5022910000000 1.0   3.78
Fe     4 -0.3615850000000 -0.3615850000000  0.0847560000000 1.0   3.94
END
