TITL LFSO-Li6FeS3O-201027-143216-254385 -0.0433 572.781788 -6.81252028E+003 6.75640 7.23765 22 (Pmn21) n - 1
REM
REM Run started: Tue, 27 Oct 2020 20:49:42 +0000 in /scratch/scratch/uccabz1/launch_tmp/launcher_2020-10-27-14-32-14-346076
REM CASTEP 19.11| from code version Version unavailable
REM Functional Perdew Burke Ernzerhof Relativity Koelling-Harmon Dispersion off
REM Cut-off 340.0000 eV Grid scale 1.7500 Gmax 16.5316 1/A FBSC none
REM MP grid 3 3 2 Offset 0.000 0.000 0.000 No. kpts 4 Spacing 0.07
REM Total runtime: 24880.6 s
REM Overall efficiency: 79.4167 %
REM
REM
REM
REM compiler GCC version 4.9.2
REM options -cpp -iprefix /scratch/UCL/applications/gcc/4.9.2/bin/../lib/gcc/x86_64-unknown-linux-gnu/4.9.2/ -mtune=corei7 -march=x86-64 -g -O2
REM COMMAND_LINE
REM seed -2085695178 1728294496 -1347060429 -2000693944 -494673469 -2145198640 -2070051822 319321745 793546944 710564327 -861334249 563609025
REM
REM S 3|1.8|5|6|7|30:31:32(qc=5)
REM O 2|1.5|12|13|15|20:21(qc=5)
REM Li 1|1.3|8|9|10|10U:20(qc=5)
REM Fe 3|2.2|2.0|1.0|8|9|10|40:41:32(qc=5)
REM Fe d:4.0 
REM
CELL 1.54180    6.43216    6.74419   13.20391   90.00000   90.00000   90.00000
LATT -1
SFAC Li O  S  Fe 
Li     1  0.0685630000000  0.3137310000000 -0.3836870000000 1.0  -0.01
Li     1 -0.0685630000000  0.1862690000000  0.1163130000000 1.0  -0.01
Li     1 -0.0685630000000 -0.1862690000000  0.1163130000000 1.0  -0.01
Li     1  0.0685630000000 -0.3137310000000 -0.3836870000000 1.0  -0.01
Li     1  0.4230270000000  0.2192110000000  0.2284490000000 1.0   0.02
Li     1 -0.4230270000000  0.2807890000000 -0.2715510000000 1.0   0.02
Li     1 -0.4230270000000 -0.2807890000000 -0.2715510000000 1.0   0.02
Li     1  0.4230270000000 -0.2192110000000  0.2284490000000 1.0   0.02
Li     1 -0.4323940000000 -0.1869770000000  0.0088110000000 1.0  -0.04
Li     1  0.4323940000000 -0.3130230000000  0.5088110000000 1.0  -0.04
Li     1  0.4323940000000  0.3130230000000  0.5088110000000 1.0  -0.04
Li     1 -0.4323940000000  0.1869770000000  0.0088110000000 1.0  -0.04
O      2 -0.2555240000000 -0.0000000000000  0.0629870000000 1.0   0.01
O      2  0.2555240000000 -0.5000000000000  0.5629870000000 1.0   0.01
S      3 -0.3657270000000 -0.1599750000000  0.3738820000000 1.0  -0.00
S      3  0.3657270000000 -0.3400250000000 -0.1261180000000 1.0  -0.00
S      3  0.3657270000000  0.3400250000000 -0.1261180000000 1.0  -0.00
S      3 -0.3657270000000  0.1599750000000  0.3738820000000 1.0  -0.00
S      3  0.2504450000000 -0.0000000000000  0.1230370000000 1.0   0.05
S      3 -0.2504450000000 -0.5000000000000 -0.3769630000000 1.0   0.05
Fe     4  0.2633130000000 -0.5000000000000  0.0423490000000 1.0   3.38
Fe     4 -0.2633130000000 -0.0000000000000 -0.4576510000000 1.0   3.38
END
