TITL LFSO-Li4Fe3S4O-201029-203109-4b614f 0.0015 219.238976 -5.03843607E+003 11.9997 12.0961 12 (Pm) n - 1
REM
REM Run started: Fri, 30 Oct 2020 01:30:39 +0000 in /lustre/scratch/uccabz1/launch_tmp/launcher_2020-10-29-20-31-08-294802
REM CASTEP 20.1 from code version af48c487+ pr-geom-scf-spinfix Tue Jun 2 15:39:59 2020 +0100
REM Functional Perdew Burke Ernzerhof Relativity Koelling-Harmon Dispersion off
REM Cut-off 340.0000 eV Grid scale 1.7500 Gmax 16.5316 1/A FBSC none
REM MP grid 4 4 2 Offset 0.000 0.000 0.000 No. kpts 8 Spacing 0.07
REM Total runtime: 19398.9 s
REM Overall efficiency: 93.8 %
REM
REM
REM
REM compiler GCC version 4.9.2
REM options -cpp -iprefix /lustre/shared/ucl/apps/gcc/4.9.2/bin/../lib/gcc/x86_64-unknown-linux-gnu/4.9.2/ -mtune=corei7 -march=x86-64 -g -Og
REM COMMAND_LINE
REM seed -1247668164 -1234355480 1386412181 -200097779 229871958 1476930359 -2100746431 434136512 -898940143 -987915237 -1183975864 1160377624
REM
REM S 3|1.8|5|6|7|30:31:32(qc=5)
REM O 2|1.5|12|13|15|20:21(qc=5)
REM Li 1|1.3|8|9|10|10U:20(qc=5)
REM Fe 3|2.2|2.0|1.0|8|9|10|40:41:32(qc=5)
REM Fe d:4.0 
REM
CELL 1.54180    4.83752    3.79908   11.92958   90.00000   90.00000   89.62974
LATT -1
SFAC Li O  S  Fe 
Li     1 -0.2312790000000 -0.3751580000000 -0.1832570000000 1.0  -0.05
Li     1 -0.2312790000000 -0.3751580000000  0.1832570000000 1.0  -0.05
Li     1 -0.3572090000000 -0.3587900000000 -0.4079690000000 1.0  -0.03
Li     1 -0.3572090000000 -0.3587900000000  0.4079690000000 1.0  -0.03
O      2  0.3464950000000  0.4659000000000  0.5000000000000 1.0   0.15
S      3 -0.2352000000000  0.1275960000000 -0.3131990000000 1.0   0.07
S      3 -0.2352000000000  0.1275960000000  0.3131990000000 1.0   0.07
S      3  0.2634220000000 -0.4484960000000  0.1374180000000 1.0   0.12
S      3  0.2634220000000 -0.4484960000000 -0.1374180000000 1.0   0.12
Fe     4  0.2422630000000  0.2745150000000 -0.3457260000000 1.0   3.90
Fe     4  0.2422630000000  0.2745150000000  0.3457260000000 1.0   3.90
Fe     4  0.2518880000000  0.0619990000000  0.0000000000000 1.0   3.82
END
