TITL LFSO-LiFe3S4O-201028-125947-1ba450 0.0446 428.127360 -8.87818141E+003 22.0000 23.1078 18 (Pma2) n - 1
REM
REM Run started: Wed, 28 Oct 2020 16:50:39 +0000 in /scratch/scratch/uccabz1/launch_tmp/launcher_2020-10-28-12-59-45-517360
REM CASTEP 19.11| from code version Version unavailable
REM Functional Perdew Burke Ernzerhof Relativity Koelling-Harmon Dispersion off
REM Cut-off 340.0000 eV Grid scale 1.7500 Gmax 16.5316 1/A FBSC none
REM MP grid 5 2 2 Offset 0.000 0.000 0.000 No. kpts 3 Spacing 0.07
REM Total runtime: 14271.6 s
REM Overall efficiency: 62.7 %
REM
REM
REM
REM compiler GCC version 4.9.2
REM options -cpp -iprefix /scratch/UCL/applications/gcc/4.9.2/bin/../lib/gcc/x86_64-unknown-linux-gnu/4.9.2/ -mtune=corei7 -march=x86-64 -g -O2
REM COMMAND_LINE
REM seed -561474444 1178182442 866230550 507244595 272162144 820185485 -790018111 -1709452058 -900091205 -2033390974 -1116142727 100345645
REM
REM S 3|1.8|5|6|7|30:31:32(qc=5)
REM O 2|1.5|12|13|15|20:21(qc=5)
REM Li 1|1.3|8|9|10|10U:20(qc=5)
REM Fe 3|2.2|2.0|1.0|8|9|10|40:41:32(qc=5)
REM Fe d:4.0 
REM
CELL 1.54180    3.55339   10.53922   11.43199   90.00000   90.00000   90.00000
LATT -1
SFAC Li O  S  Fe 
Li     1 -0.6327470000000 -0.2500000000000  0.4682320000000 1.0  -0.01
Li     1 -0.6327470000000  0.2500000000000 -0.4682320000000 1.0  -0.01
O      2 -0.1747150000000 -0.2500000000000  0.3748700000000 1.0   0.18
O      2 -0.1747150000000  0.2500000000000 -0.3748700000000 1.0   0.18
S      3  0.2949270000000  0.4626840000000  0.4148830000000 1.0  -0.02
S      3  0.2949270000000 -0.4626840000000 -0.4148830000000 1.0  -0.02
S      3  0.2949270000000 -0.0373160000000 -0.4148830000000 1.0  -0.02
S      3  0.2949270000000  0.0373160000000  0.4148830000000 1.0  -0.02
S      3 -0.1263680000000 -0.4659440000000 -0.1330990000000 1.0  -0.11
S      3 -0.1263680000000  0.4659440000000  0.1330990000000 1.0  -0.11
S      3 -0.1263680000000  0.0340560000000  0.1330990000000 1.0  -0.11
S      3 -0.1263680000000 -0.0340560000000 -0.1330990000000 1.0  -0.11
Fe     4 -0.2187990000000 -0.0815510000000  0.3102600000000 1.0   3.78
Fe     4 -0.2187990000000  0.0815510000000 -0.3102600000000 1.0   3.78
Fe     4 -0.2187990000000  0.4184490000000 -0.3102600000000 1.0   3.78
Fe     4 -0.2187990000000 -0.4184490000000  0.3102600000000 1.0   3.78
Fe     4  0.3763460000000 -0.0000000000000  0.0000000000000 1.0   3.54
Fe     4  0.3763460000000 -0.5000000000000  0.0000000000000 1.0   3.54
END
