TITL LFSO-Li4Fe3S3O2-201029-002317-e8ee91 0.0267 293.832001 -5.17192114E+003 11.9925 12.2525 12 (P3) n - 1
REM
REM Run started: Thu, 29 Oct 2020 03:06:45 +0000 in /lustre/scratch/uccabz1/launch_tmp/launcher_2020-10-29-00-23-15-031167
REM CASTEP 20.1 from code version af48c487+ pr-geom-scf-spinfix Tue Jun 2 15:39:59 2020 +0100
REM Functional Perdew Burke Ernzerhof Relativity Koelling-Harmon Dispersion off
REM Cut-off 340.0000 eV Grid scale 1.7500 Gmax 16.5316 1/A FBSC none
REM MP grid 4 2 2 Offset 0.000 0.000 0.000 No. kpts 8 Spacing 0.07
REM Total runtime: 10000.4 s
REM Overall efficiency: 88.1111 %
REM
REM
REM
REM compiler GCC version 4.9.2
REM options -cpp -iprefix /lustre/shared/ucl/apps/gcc/4.9.2/bin/../lib/gcc/x86_64-unknown-linux-gnu/4.9.2/ -mtune=corei7 -march=x86-64 -g -Og
REM COMMAND_LINE
REM seed -700358716 -1317209817 805808924 1632276454 -2110710144 -818444518 -1673712045 -1500715165 -150597975 -395254790 1218940852 -1429348893
REM
REM S 3|1.8|5|6|7|30:31:32(qc=5)
REM O 2|1.5|12|13|15|20:21(qc=5)
REM Li 1|1.3|8|9|10|10U:20(qc=5)
REM Fe 3|2.2|2.0|1.0|8|9|10|40:41:32(qc=5)
REM Fe d:4.0 
REM
CELL 1.54180    3.78785    9.46428    9.46428  120.00000   90.00000   90.00000
LATT -1
SFAC Li O  S  Fe 
Li     1 -0.1922230000000  0.4665040000000  0.2790490000000 1.0  -0.04
Li     1 -0.1922230000000 -0.1874560000000 -0.4665040000000 1.0  -0.04
Li     1 -0.1922230000000 -0.2790490000000  0.1874560000000 1.0  -0.04
Li     1  0.2560190000000  0.0000000000000 -0.0000000000000 1.0   0.02
O      2  0.7356460000000 -0.3333330000000  0.3333330000000 1.0   0.09
O      2 -0.0926460000000  0.3333330000000 -0.3333330000000 1.0   0.22
S      3  0.4160810000000  0.2351910000000  0.2768040000000 1.0   0.11
S      3  0.4160810000000  0.0416130000000 -0.2351910000000 1.0   0.11
S      3  0.4160810000000 -0.2768040000000 -0.0416130000000 1.0   0.11
Fe     4 -0.0776530000000  0.1733390000000 -0.2630360000000 1.0   3.81
Fe     4 -0.0776530000000 -0.4363750000000 -0.1733390000000 1.0   3.81
Fe     4 -0.0776530000000  0.2630360000000  0.4363750000000 1.0   3.81
END
