TITL LFSO-Li4Fe2S3O-201026-072142-d73299 -0.0218 180.519869 -3.87340703E+003 8.00000 8.05497 10 (P-1) n - 1
REM
REM Run started: Mon, 26 Oct 2020 11:24:20 +0000 in /scratch/scratch/uccabz1/launch_tmp/launcher_2020-10-26-07-21-41-085345
REM CASTEP 19.11| from code version Version unavailable
REM Functional Perdew Burke Ernzerhof Relativity Koelling-Harmon Dispersion off
REM Cut-off 340.0000 eV Grid scale 1.7500 Gmax 16.5316 1/A FBSC none
REM MP grid 5 3 3 Offset 0.000 0.000 0.000 No. kpts 23 Spacing 0.07
REM Total runtime: 15587.8 s
REM Overall efficiency: 79.5385 %
REM
REM
REM
REM compiler GCC version 4.9.2
REM options -cpp -iprefix /scratch/UCL/applications/gcc/4.9.2/bin/../lib/gcc/x86_64-unknown-linux-gnu/4.9.2/ -mtune=corei7 -march=x86-64 -g -O2
REM COMMAND_LINE
REM seed 73257648 -940607648 1269269274 1339603137 -1460253833 -1302835197 -1061909722 -496603858 1183620154 1687610635 1068249115 -523519846
REM
REM S 3|1.8|5|6|7|30:31:32(qc=5)
REM O 2|1.5|12|13|15|20:21(qc=5)
REM Li 1|1.3|8|9|10|10U:20(qc=5)
REM Fe 3|2.2|2.0|1.0|8|9|10|40:41:32(qc=5)
REM Fe d:4.0 
REM
CELL 1.54180    3.82493    7.57288    9.89057  131.46004   93.52646  111.24375
LATT -1
SFAC Li O  S  Fe 
Li     1 -0.1981000000000  0.1148110000000 -0.0321330000000 1.0  -0.03
Li     1  0.1981000000000 -0.1148110000000  0.0321330000000 1.0  -0.03
Li     1 -0.5879100000000 -0.3193850000000 -0.4734390000000 1.0  -0.02
Li     1  0.5879100000000  0.3193850000000  0.4734390000000 1.0  -0.02
O      2  0.0000000000000  0.0000000000000  0.5000000000000 1.0   0.26
S      3 -0.9449490000000 -0.1741190000000 -0.2505680000000 1.0   0.05
S      3  0.9449490000000  0.1741190000000  0.2505680000000 1.0   0.05
S      3  0.0000000000000 -0.5000000000000  0.0000000000000 1.0   0.07
Fe     4  0.7337380000000 -0.1858160000000  0.2401320000000 1.0   3.84
Fe     4 -0.7337380000000  0.1858160000000 -0.2401320000000 1.0   3.84
END
