TITL LFSO-Li5FeSO3-201027-014524-39dc9e 0.0355 294.665974 -6.95602331E+003 10.0000 10.0677 20 (Ama2) n - 1
REM
REM Run started: Tue, 27 Oct 2020 06:12:46 +0000 in /scratch/scratch/uccabz1/launch_tmp/launcher_2020-10-27-01-45-22-358376
REM CASTEP 19.11| from code version Version unavailable
REM Functional Perdew Burke Ernzerhof Relativity Koelling-Harmon Dispersion off
REM Cut-off 340.0000 eV Grid scale 1.7500 Gmax 16.5316 1/A FBSC none
REM MP grid 3 4 2 Offset 0.000 0.000 0.000 No. kpts 6 Spacing 0.07
REM Total runtime: 16772.6 s
REM Overall efficiency: 88.8333 %
REM
REM
REM
REM compiler GCC version 4.9.2
REM options -cpp -iprefix /scratch/UCL/applications/gcc/4.9.2/bin/../lib/gcc/x86_64-unknown-linux-gnu/4.9.2/ -mtune=corei7 -march=x86-64 -g -O2
REM COMMAND_LINE
REM seed -237778468 -1721005945 -431835512 -1927909613 -2041424023 -1706577051 -1975253597 402163432 -1993854037 496412370 -1755424483 1751059108
REM
REM S 3|1.8|5|6|7|30:31:32(qc=5)
REM O 2|1.5|12|13|15|20:21(qc=5)
REM Li 1|1.3|8|9|10|10U:20(qc=5)
REM Fe 3|2.2|2.0|1.0|8|9|10|40:41:32(qc=5)
REM Fe d:4.0 
REM
CELL 1.54180    9.14007    6.20747    7.67431   90.00000   90.00000  137.41008
LATT -1
SFAC Li O  S  Fe 
Li     1  0.1566690000000 -0.3675590000000 -0.1017200000000 1.0   0.01
Li     1  0.4757730000000 -0.3675590000000  0.1017200000000 1.0   0.01
Li     1  0.4757730000000 -0.3675590000000  0.3982800000000 1.0   0.01
Li     1  0.1566690000000 -0.3675590000000 -0.3982800000000 1.0   0.01
Li     1 -0.6418530000000  0.2012280000000 -0.1031230000000 1.0   0.01
Li     1 -0.1569190000000  0.2012280000000  0.1031230000000 1.0   0.01
Li     1 -0.1569190000000  0.2012280000000  0.3968770000000 1.0   0.01
Li     1 -0.6418530000000  0.2012280000000 -0.3968770000000 1.0   0.01
Li     1 -0.3943740000000  0.2112520000000  0.0000000000000 1.0  -0.03
Li     1 -0.3943740000000  0.2112520000000  0.5000000000000 1.0  -0.03
O      2 -0.0719910000000  0.5375020000000 -0.0098970000000 1.0   0.36
O      2  0.6094930000000  0.5375020000000  0.0098970000000 1.0   0.36
O      2  0.6094930000000  0.5375020000000  0.4901030000000 1.0   0.36
O      2 -0.0719910000000  0.5375020000000 -0.4901030000000 1.0   0.36
O      2 -0.3971380000000 -0.0305870000000  0.2500000000000 1.0   0.02
O      2  0.3665510000000 -0.0305870000000 -0.2500000000000 1.0   0.02
S      3  0.0844640000000  0.1767800000000  0.2500000000000 1.0   0.22
S      3  0.0923160000000  0.1767800000000 -0.2500000000000 1.0   0.22
Fe     4 -0.0973840000000 -0.1947690000000  0.0000000000000 1.0   4.04
Fe     4 -0.0973840000000 -0.1947690000000  0.5000000000000 1.0   4.04
END
