TITL LFSO-Li2FeSO-201025-043841-87e7bb -0.0781 287.042428 -6.01110662E+003 11.9947 12.3549 15 (P-1) n - 1
REM
REM Run started: Sun, 25 Oct 2020 13:59:23 +0000 in /lustre/scratch/uccabz1/launch_tmp/launcher_2020-10-25-04-38-40-048415
REM CASTEP 20.1 from code version af48c487+ pr-geom-scf-spinfix Tue Jun 2 15:39:59 2020 +0100
REM Functional Perdew Burke Ernzerhof Relativity Koelling-Harmon Dispersion off
REM Cut-off 340.0000 eV Grid scale 1.7500 Gmax 16.5316 1/A FBSC none
REM MP grid 3 3 2 Offset 0.000 0.000 0.000 No. kpts 9 Spacing 0.07
REM Total runtime: 36719.3 s
REM Overall efficiency: 82.3077 %
REM
REM
REM
REM compiler GCC version 4.9.2
REM options -cpp -iprefix /lustre/shared/ucl/apps/gcc/4.9.2/bin/../lib/gcc/x86_64-unknown-linux-gnu/4.9.2/ -mtune=corei7 -march=x86-64 -g -Og
REM COMMAND_LINE
REM seed -2145546473 1988795244 363021850 -1611161458 -704404929 -2012317810 -1828764700 1684814963 1129973499 762922705 480038902 20171311
REM
REM S 3|1.8|5|6|7|30:31:32(qc=5)
REM O 2|1.5|12|13|15|20:21(qc=5)
REM Li 1|1.3|8|9|10|10U:20(qc=5)
REM Fe 3|2.2|2.0|1.0|8|9|10|40:41:32(qc=5)
REM Fe d:4.0 
REM
CELL 1.54180    7.35895    7.27025    8.75214   67.96007  118.07541  135.88905
LATT -1
SFAC Li O  S  Fe 
Li     1  0.0070220000000 -0.1013480000000 -0.0800090000000 1.0  -0.01
Li     1 -0.0070220000000  0.1013480000000  0.0800090000000 1.0  -0.01
Li     1  0.4523910000000 -0.2941500000000  0.0131130000000 1.0  -0.02
Li     1 -0.4523910000000  0.2941500000000 -0.0131130000000 1.0  -0.02
Li     1  0.2079480000000 -0.2082420000000  0.2490470000000 1.0  -0.05
Li     1 -0.2079480000000  0.2082420000000 -0.2490470000000 1.0  -0.05
O      2 -0.2966500000000 -0.1131510000000 -0.1160680000000 1.0   0.18
O      2  0.2966500000000  0.1131510000000  0.1160680000000 1.0   0.18
O      2  0.5000000000000  0.0000000000000 -0.5000000000000 1.0   0.24
S      3  0.2312130000000  0.2810500000000 -0.3006830000000 1.0   0.05
S      3 -0.2312130000000 -0.2810500000000  0.3006830000000 1.0   0.05
S      3  0.0000000000000  0.5000000000000  0.0000000000000 1.0   0.05
Fe     4 -0.4763210000000  0.2693680000000  0.3331930000000 1.0   3.75
Fe     4  0.4763210000000 -0.2693680000000 -0.3331930000000 1.0   3.75
Fe     4  0.0000000000000  0.0000000000000 -0.5000000000000 1.0   3.90
END
