TITL LFSO-Li4Fe3S4O-201029-230152-192cda 0.0119 272.858024 -5.03834063E+003 11.9962 12.1844 12 (R3m) n - 1
REM
REM Run started: Fri, 30 Oct 2020 05:45:31 +0000 in /lustre/scratch/uccabz1/launch_tmp/launcher_2020-10-29-23-01-50-376442
REM CASTEP 20.1 from code version af48c487+ pr-geom-scf-spinfix Tue Jun 2 15:39:59 2020 +0100
REM Functional Perdew Burke Ernzerhof Relativity Koelling-Harmon Dispersion off
REM Cut-off 340.0000 eV Grid scale 1.7500 Gmax 16.5316 1/A FBSC none
REM MP grid 3 3 3 Offset 0.000 0.000 0.000 No. kpts 6 Spacing 0.07
REM Total runtime: 26901.1 s
REM Overall efficiency: 96.2308 %
REM
REM
REM
REM compiler GCC version 4.9.2
REM options -cpp -iprefix /lustre/shared/ucl/apps/gcc/4.9.2/bin/../lib/gcc/x86_64-unknown-linux-gnu/4.9.2/ -mtune=corei7 -march=x86-64 -g -Og
REM COMMAND_LINE
REM seed 1299983818 -302848718 -1618397441 -1090116237 -115396366 -382738581 1413701899 1403084278 346576823 -430949644 2137539455 754515438
REM
REM S 3|1.8|5|6|7|30:31:32(qc=5)
REM O 2|1.5|12|13|15|20:21(qc=5)
REM Li 1|1.3|8|9|10|10U:20(qc=5)
REM Fe 3|2.2|2.0|1.0|8|9|10|40:41:32(qc=5)
REM Fe d:4.0 
REM
CELL 1.54180    7.57191    7.57191    7.57191   55.21906   55.21906   55.21906
LATT -1
SFAC Li O  S  Fe 
Li     1 -0.1214770000000  0.3952820000000  0.3919600000000 1.0  -0.00
Li     1  0.3919600000000 -0.1214770000000  0.3952820000000 1.0  -0.00
Li     1  0.3952820000000  0.3919600000000 -0.1214770000000 1.0  -0.00
Li     1  0.0941670000000  0.0941670000000  0.0941670000000 1.0  -0.04
O      2  0.3981910000000  0.3981910000000  0.3981910000000 1.0   0.15
S      3 -0.0217150000000 -0.0175330000000 -0.5203200000000 1.0   0.12
S      3 -0.5203200000000 -0.0217150000000 -0.0175330000000 1.0   0.12
S      3 -0.0175330000000 -0.5203200000000 -0.0217150000000 1.0   0.12
S      3 -0.3591310000000 -0.3591310000000 -0.3591310000000 1.0   0.05
Fe     4  0.0831820000000 -0.4251820000000 -0.4168770000000 1.0   3.83
Fe     4 -0.4168770000000  0.0831820000000 -0.4251820000000 1.0   3.83
Fe     4 -0.4251820000000 -0.4168770000000  0.0831820000000 1.0   3.83
END
