TITL LFSO-Li5FeS2O2-201026-043116-1ec524 0.0106 259.222327 -6.68859454E+003 6.87117 8.79569 20 (I-4) n - 1
REM
REM Run started: Mon, 26 Oct 2020 05:08:24 +0000 in /scratch/scratch/uccabz1/launch_tmp/launcher_2020-10-26-04-31-15-165590
REM CASTEP 19.11| from code version Version unavailable
REM Functional Perdew Burke Ernzerhof Relativity Koelling-Harmon Dispersion off
REM Cut-off 340.0000 eV Grid scale 1.7500 Gmax 16.5316 1/A FBSC none
REM MP grid 3 3 3 Offset 0.000 0.000 0.000 No. kpts 6 Spacing 0.07
REM Total runtime: 2667 s
REM Overall efficiency: 70.1667 %
REM
REM
REM
REM compiler GCC version 4.9.2
REM options -cpp -iprefix /scratch/UCL/applications/gcc/4.9.2/bin/../lib/gcc/x86_64-unknown-linux-gnu/4.9.2/ -mtune=corei7 -march=x86-64 -g -O2
REM COMMAND_LINE
REM seed 1469074554 73257648 1858533475 -2106510549 -704757353 934540161 -2017605152 -449276520 155627324 518766504 2033092646 -1306602252
REM
REM S 3|1.8|5|6|7|30:31:32(qc=5)
REM O 2|1.5|12|13|15|20:21(qc=5)
REM Li 1|1.3|8|9|10|10U:20(qc=5)
REM Fe 3|2.2|2.0|1.0|8|9|10|40:41:32(qc=5)
REM Fe d:4.0 
REM
CELL 1.54180    7.00330    7.00330    7.00330  100.08698  114.35748  114.35748
LATT -1
SFAC Li O  S  Fe 
Li     1  0.2582410000000 -0.4392700000000 -0.1975140000000 1.0   0.01
Li     1 -0.2582410000000 -0.4557550000000  0.3024900000000 1.0   0.01
Li     1 -0.2417560000000  0.1975140000000  0.4557550000000 1.0   0.01
Li     1  0.2417560000000 -0.3024900000000  0.4392700000000 1.0   0.01
Li     1  0.0544450000000  0.0252960000000 -0.4728260000000 1.0  -0.04
Li     1 -0.0544450000000  0.4727290000000 -0.0291490000000 1.0  -0.04
Li     1  0.4981220000000  0.4728260000000 -0.4727290000000 1.0  -0.04
Li     1 -0.4981220000000  0.0291490000000 -0.0252960000000 1.0  -0.04
Li     1 -0.5000000000000  0.3938810000000 -0.1061190000000 1.0   0.05
Li     1  0.5000000000000  0.1061190000000 -0.3938810000000 1.0   0.05
O      2 -0.2264830000000  0.3442550000000  0.1139550000000 1.0   0.09
O      2  0.2264830000000  0.3404380000000  0.5707380000000 1.0   0.09
O      2  0.2303000000000 -0.1139550000000 -0.3404380000000 1.0   0.09
O      2 -0.2303000000000 -0.5707380000000 -0.3442550000000 1.0   0.09
S      3 -0.2785400000000 -0.1727380000000  0.1083180000000 1.0  -0.26
S      3  0.2785400000000  0.3868580000000  0.1058020000000 1.0  -0.26
S      3 -0.2810560000000 -0.1083180000000 -0.3868580000000 1.0  -0.26
S      3  0.2810560000000 -0.1058020000000  0.1727380000000 1.0  -0.26
Fe     4 -0.0000000000000  0.2251760000000  0.2251760000000 1.0   3.78
Fe     4 -0.0000000000000 -0.2251760000000 -0.2251760000000 1.0   3.78
END
