TITL LFSO-Li4Fe3S4O-201030-034717-6ab273 -0.0088 272.010869 -5.03061167E+003 11.2102 11.9290 12 (C222) n - 1
REM
REM Run started: Fri, 30 Oct 2020 08:12:03 +0000 in /lustre/scratch/uccabz1/launch_tmp/launcher_2020-10-30-03-47-15-871444
REM CASTEP 20.1 from code version af48c487+ pr-geom-scf-spinfix Tue Jun 2 15:39:59 2020 +0100
REM Functional Perdew Burke Ernzerhof Relativity Koelling-Harmon Dispersion off
REM Cut-off 340.0000 eV Grid scale 1.7500 Gmax 16.5316 1/A FBSC none
REM MP grid 5 3 2 Offset 0.000 0.000 0.000 No. kpts 8 Spacing 0.07
REM Total runtime: 15546.4 s
REM Overall efficiency: 93.75 %
REM
REM
REM
REM compiler GCC version 4.9.2
REM options -cpp -iprefix /lustre/shared/ucl/apps/gcc/4.9.2/bin/../lib/gcc/x86_64-unknown-linux-gnu/4.9.2/ -mtune=corei7 -march=x86-64 -g -Og
REM COMMAND_LINE
REM seed -1106928918 -1840145746 -2124823786 -1539401270 -1990300966 719695952 -1444742850 1138240125 -1636810075 1361932486 -1720621326 -351277969
REM
REM S 3|1.8|5|6|7|30:31:32(qc=5)
REM O 2|1.5|12|13|15|20:21(qc=5)
REM Li 1|1.3|8|9|10|10U:20(qc=5)
REM Fe 3|2.2|2.0|1.0|8|9|10|40:41:32(qc=5)
REM Fe d:4.0 
REM
CELL 1.54180    3.40822    6.47257   12.78147   90.00000   90.00000  105.26486
LATT -1
SFAC Li O  S  Fe 
Li     1 -0.0153430000000  0.2444910000000 -0.1332290000000 1.0  -0.03
Li     1  0.0153430000000 -0.2444910000000 -0.1332290000000 1.0  -0.03
Li     1 -0.2598340000000 -0.2444910000000  0.1332290000000 1.0  -0.03
Li     1  0.2598340000000  0.2444910000000  0.1332290000000 1.0  -0.03
O      2 -0.5000000000000  0.0000000000000  0.5000000000000 1.0   0.61
S      3 -0.1386550000000 -0.2497170000000 -0.3042690000000 1.0  -0.01
S      3  0.1386550000000  0.2497170000000 -0.3042690000000 1.0  -0.01
S      3  0.1110610000000  0.2497170000000  0.3042690000000 1.0  -0.01
S      3 -0.1110610000000 -0.2497170000000  0.3042690000000 1.0  -0.01
Fe     4  0.5000000000000  0.0000000000000  0.3569800000000 1.0   3.76
Fe     4 -0.5000000000000  0.0000000000000 -0.3569800000000 1.0   3.76
Fe     4 -0.5000000000000  0.0000000000000  0.0000000000000 1.0   3.26
END
