TITL LFSO-Li4Fe3S3O2-201029-064730-d05af7 0.8377 552.580652 -1.03470037E+004 -24.0000 24.5318 24 (Cc) n - 1
REM
REM Run started: Fri, 30 Oct 2020 13:49:10 +0000 in /lustre/scratch/uccabz1/launch_tmp/launcher_2020-10-30-08-51-56-829542
REM CASTEP 20.1 from code version af48c487+ pr-geom-scf-spinfix Tue Jun 2 15:39:59 2020 +0100
REM Functional Perdew Burke Ernzerhof Relativity Koelling-Harmon Dispersion off
REM Cut-off 340.0000 eV Grid scale 1.7500 Gmax 16.5316 1/A FBSC none
REM MP grid 6 2 2 Offset 0.000 0.000 0.000 No. kpts 9 Spacing 0.07
REM Total runtime: 98300 s
REM Overall efficiency: 68.5 %
REM
REM
REM
REM compiler GCC version 4.9.2
REM options -cpp -iprefix /scratch/UCL/applications/gcc/4.9.2/bin/../lib/gcc/x86_64-unknown-linux-gnu/4.9.2/ -mtune=corei7 -march=x86-64 -g -O2
REM COMMAND_LINE
REM seed -1098322723 517186760 164823622 -1682047603 -963234784 -1092000190 838355172 -1919097828 -1852591188 1519451182 -1054840182 -1034501731
REM
REM S 3|1.8|5|6|7|30:31:32(qc=5)
REM O 2|1.5|12|13|15|20:21(qc=5)
REM Li 1|1.3|8|9|10|10U:20(qc=5)
REM Fe 3|2.2|2.0|1.0|8|9|10|40:41:32(qc=5)
REM Fe d:4.0 
REM
CELL 1.54180    6.72235   21.03583   21.03583   28.56552   26.75099   26.75099
LATT -1
SFAC Li O  S  Fe 
Li     1  0.3261010000000 -0.4087260000000  0.5548670000000 1.0   0.03
Li     1 -0.1738990000000  0.5548670000000 -0.4087260000000 1.0   0.03
Li     1 -0.1681500000000  0.1713030000000  0.2720260000000 1.0   0.02
Li     1 -0.6681500000000  0.2720260000000  0.1713030000000 1.0   0.02
Li     1 -0.1628890000000  0.2950010000000 -0.5781810000000 1.0   0.02
Li     1  0.3371110000000 -0.5781810000000  0.2950010000000 1.0   0.02
Li     1  0.3140850000000 -0.2022390000000 -0.3795240000000 1.0   0.04
Li     1 -0.1859150000000 -0.3795240000000 -0.2022390000000 1.0   0.04
O      2 -0.2280180000000  0.4046430000000  0.2624200000000 1.0  -0.18
O      2  0.2719820000000  0.2624200000000  0.4046430000000 1.0  -0.18
O      2 -0.0619420000000 -0.3432420000000 -0.4648540000000 1.0  -0.19
O      2  0.4380580000000 -0.4648540000000 -0.3432420000000 1.0  -0.19
S      3 -0.0491720000000 -0.2783440000000 -0.1103670000000 1.0  -0.12
S      3  0.4508280000000 -0.1103670000000 -0.2783440000000 1.0  -0.12
S      3  0.4052130000000  0.0310700000000  0.3519350000000 1.0  -0.11
S      3 -0.0947870000000  0.3519350000000  0.0310700000000 1.0  -0.11
S      3  0.2976440000000  0.1716600000000 -0.3290550000000 1.0  -0.09
S      3 -0.2023560000000 -0.3290550000000  0.1716600000000 1.0  -0.09
Fe     4  0.2982220000000 -0.2218980000000 -0.0486040000000 1.0  -3.81
Fe     4  0.7982220000000 -0.0486040000000 -0.2218980000000 1.0  -3.81
Fe     4 -0.4461720000000  0.3351160000000 -0.1999750000000 1.0  -3.76
Fe     4  0.0538280000000 -0.1999750000000  0.3351160000000 1.0  -3.76
Fe     4 -0.0200630000000 -0.4667920000000  0.1271730000000 1.0  -3.84
Fe     4 -0.5200630000000  0.1271730000000 -0.4667920000000 1.0  -3.84
END
