TITL LFSO-Li2Fe4S3O2-201026-095005-7fc7d4 -0.2687 213.224290 -5.63201412E+003 14.6603 15.0718 11 (P-1) n - 1
REM
REM Run started: Tue, 27 Oct 2020 05:15:40 +0000 in /scratch/scratch/uccabz1/launch_tmp/launcher_2020-10-27-03-10-25-487131
REM CASTEP 19.11| from code version Version unavailable
REM Functional Perdew Burke Ernzerhof Relativity Koelling-Harmon Dispersion off
REM Cut-off 340.0000 eV Grid scale 1.7500 Gmax 16.5316 1/A FBSC none
REM MP grid 3 6 3 Offset 0.000 0.000 0.000 No. kpts 27 Spacing 0.07
REM Total runtime: 57094 s
REM Overall efficiency: 82.2 %
REM
REM
REM
REM compiler GCC version 4.9.2
REM options -cpp -iprefix /lustre/shared/ucl/apps/gcc/4.9.2/bin/../lib/gcc/x86_64-unknown-linux-gnu/4.9.2/ -mtune=corei7 -march=x86-64 -g -Og
REM COMMAND_LINE
REM seed 351123934 1373119239 -1924325299 -449344829 1109250018 817397461 -1239875451 110895018 -2056132247 904984968 725528029 -257590104
REM
REM S 3|1.8|5|6|7|30:31:32(qc=5)
REM O 2|1.5|12|13|15|20:21(qc=5)
REM Li 1|1.3|8|9|10|10U:20(qc=5)
REM Fe 3|2.2|2.0|1.0|8|9|10|40:41:32(qc=5)
REM Fe d:4.0 
REM
CELL 1.54180   10.15848    5.35948   11.60691  150.04562  137.18307   47.79367
LATT -1
SFAC Li O  S  Fe 
Li     1  0.0000000000000  0.0000000000000  0.0000000000000 1.0  -0.16
Li     1  0.0000000000000  0.5000000000000  0.5000000000000 1.0  -0.16
O      2  0.0000000000000 -0.5000000000000  0.0000000000000 1.0   0.15
O      2 -0.5000000000000  0.0000000000000  0.0000000000000 1.0   0.18
S      3  0.5000000000000 -0.5000000000000 -0.5000000000000 1.0   0.15
S      3  0.0000000000000  0.0000000000000  0.5000000000000 1.0   0.12
S      3 -0.5000000000000  0.0000000000000 -0.5000000000000 1.0   0.10
Fe     4 -0.3217340000000  0.1473630000000  0.3035750000000 1.0   3.55
Fe     4  0.3217340000000 -0.1473630000000 -0.3035750000000 1.0   3.55
Fe     4  0.2629490000000  0.3738480000000  0.0761760000000 1.0   3.59
Fe     4 -0.2629490000000 -0.3738480000000 -0.0761760000000 1.0   3.59
END
