TITL LFSO-Li2FeSO-201025-014210-743f20 -0.0059 156.054442 -4.00373207E+003 8.00000 8.15997 10 (R3) n - 1
REM
REM Run started: Sun, 25 Oct 2020 07:10:20 +0000 in /lustre/scratch/uccabz1/launch_tmp/launcher_2020-10-25-00-42-08-678194
REM CASTEP 20.1 from code version af48c487+ pr-geom-scf-spinfix Tue Jun 2 15:39:59 2020 +0100
REM Functional Perdew Burke Ernzerhof Relativity Koelling-Harmon Dispersion off
REM Cut-off 340.0000 eV Grid scale 1.7500 Gmax 16.5316 1/A FBSC none
REM MP grid 4 4 2 Offset 0.000 0.000 0.000 No. kpts 16 Spacing 0.07
REM Total runtime: 23516.4 s
REM Overall efficiency: 96.1667 %
REM
REM
REM
REM compiler GCC version 4.9.2
REM options -cpp -iprefix /lustre/shared/ucl/apps/gcc/4.9.2/bin/../lib/gcc/x86_64-unknown-linux-gnu/4.9.2/ -mtune=corei7 -march=x86-64 -g -Og
REM COMMAND_LINE
REM seed -1486229304 -1482557261 1123843100 1967432004 -1084378193 -2096410396 -554489292 904278660 -356580317 1526687312 506789392 1777726252
REM
REM S 3|1.8|5|6|7|30:31:32(qc=5)
REM O 2|1.5|12|13|15|20:21(qc=5)
REM Li 1|1.3|8|9|10|10U:20(qc=5)
REM Fe 3|2.2|2.0|1.0|8|9|10|40:41:32(qc=5)
REM Fe d:4.0 
REM
CELL 1.54180    4.32619    4.32619    9.94666   77.43953   77.43953   60.00000
LATT -1
SFAC Li O  S  Fe 
Li     1 -0.3243660000000  0.1227370000000 -0.2879650000000 1.0  -0.05
Li     1  0.1227370000000  0.4895930000000 -0.2879650000000 1.0  -0.05
Li     1  0.4895930000000 -0.3243660000000 -0.2879650000000 1.0  -0.05
Li     1 -0.3917670000000 -0.3917670000000  1.1753010000000 1.0  -0.04
O      2  0.3807430000000  0.3807430000000 -1.1422300000000 1.0   0.22
O      2  0.0942830000000  0.0942830000000 -0.2828490000000 1.0   0.09
S      3 -0.0539460000000 -0.0539460000000  0.1618370000000 1.0   0.10
S      3 -0.4938470000000 -0.4938470000000  1.4815410000000 1.0   0.03
Fe     4 -0.1390050000000 -0.1390050000000  0.4170140000000 1.0   3.90
Fe     4  0.0262640000000  0.0262640000000 -0.0787930000000 1.0   3.83
END
