TITL LFSO-Li4Fe3S3O2-201029-143337-0fd68e 0.0249 228.956917 -5.17311716E+003 11.9998 12.1621 12 (Cm) n - 1
REM
REM Run started: Thu, 29 Oct 2020 16:16:20 +0000 in /lustre/scratch/uccabz1/launch_tmp/launcher_2020-10-29-14-33-35-582488
REM CASTEP 20.1 from code version af48c487+ pr-geom-scf-spinfix Tue Jun 2 15:39:59 2020 +0100
REM Functional Perdew Burke Ernzerhof Relativity Koelling-Harmon Dispersion off
REM Cut-off 340.0000 eV Grid scale 1.7500 Gmax 16.5316 1/A FBSC none
REM MP grid 3 3 4 Offset 0.000 0.000 0.000 No. kpts 12 Spacing 0.07
REM Total runtime: 6857.76 s
REM Overall efficiency: 77.4286 %
REM
REM
REM
REM compiler GCC version 4.9.2
REM options -cpp -iprefix /lustre/shared/ucl/apps/gcc/4.9.2/bin/../lib/gcc/x86_64-unknown-linux-gnu/4.9.2/ -mtune=corei7 -march=x86-64 -g -Og
REM COMMAND_LINE
REM seed 264225039 178999669 69817096 260662425 568465737 -517089350 -1668532849 75702747 -514247559 -1075149828 -1119747363 1585776374
REM
REM S 3|1.8|5|6|7|30:31:32(qc=5)
REM O 2|1.5|12|13|15|20:21(qc=5)
REM Li 1|1.3|8|9|10|10U:20(qc=5)
REM Fe 3|2.2|2.0|1.0|8|9|10|40:41:32(qc=5)
REM Fe d:4.0 
REM
CELL 1.54180    7.50327    7.50327    6.24703   54.06716   54.06716   65.03084
LATT -1
SFAC Li O  S  Fe 
Li     1 -0.2352800000000  0.0957350000000 -0.2162620000000 1.0  -0.01
Li     1  0.0957350000000 -0.2352800000000 -0.2162620000000 1.0  -0.01
Li     1  0.0609660000000  0.4683500000000 -0.6395240000000 1.0  -0.02
Li     1  0.4683500000000  0.0609660000000 -0.6395240000000 1.0  -0.02
O      2 -0.0654140000000 -0.4572680000000  0.1348020000000 1.0   0.18
O      2 -0.4572680000000 -0.0654140000000  0.1348020000000 1.0   0.18
S      3  0.1979670000000 -0.3518290000000 -0.5586230000000 1.0   0.17
S      3 -0.3518290000000  0.1979670000000 -0.5586230000000 1.0   0.17
S      3  0.0999180000000  0.0999180000000  0.7671510000000 1.0   0.06
Fe     4 -0.0201460000000  0.3516130000000 -0.0186420000000 1.0   3.78
Fe     4  0.3516130000000 -0.0201460000000 -0.0186420000000 1.0   3.78
Fe     4 -0.3994400000000 -0.3994400000000  0.2939820000000 1.0   3.73
END
