TITL LFSO-Li6FeS3O-201027-183535-0d0885 -0.2432 247.936292 -3.41156563E+003 -4.00000 4.17564 11 (P3) n - 1
REM
REM Run started: Tue, 27 Oct 2020 20:45:22 +0000 in /lustre/scratch/uccabz1/launch_tmp/launcher_2020-10-27-18-35-33-422977
REM CASTEP 20.1 from code version af48c487+ pr-geom-scf-spinfix Tue Jun 2 15:39:59 2020 +0100
REM Functional Perdew Burke Ernzerhof Relativity Koelling-Harmon Dispersion off
REM Cut-off 340.0000 eV Grid scale 1.7500 Gmax 16.5316 1/A FBSC none
REM MP grid 3 3 4 Offset 0.000 0.000 0.000 No. kpts 10 Spacing 0.07
REM Total runtime: 8251.1 s
REM Overall efficiency: 84.6923 %
REM
REM
REM
REM compiler GCC version 4.9.2
REM options -cpp -iprefix /lustre/shared/ucl/apps/gcc/4.9.2/bin/../lib/gcc/x86_64-unknown-linux-gnu/4.9.2/ -mtune=corei7 -march=x86-64 -g -Og
REM COMMAND_LINE
REM seed 1070304875 1192727170 1245604505 -898943212 970716063 -1491038000 1419041702 -1757617716 -120558436 219171039 -1415462077 404727146
REM
REM S 3|1.8|5|6|7|30:31:32(qc=5)
REM O 2|1.5|12|13|15|20:21(qc=5)
REM Li 1|1.3|8|9|10|10U:20(qc=5)
REM Fe 3|2.2|2.0|1.0|8|9|10|40:41:32(qc=5)
REM Fe d:4.0 
REM
CELL 1.54180    7.22705    7.22705    5.48134   90.00000   90.00000  120.00000
LATT -1
SFAC Li O  S  Fe 
Li     1 -0.4308810000000 -0.1061900000000 -0.0274620000000 1.0   0.01
Li     1  0.1061900000000 -0.3246910000000 -0.0274620000000 1.0   0.01
Li     1  0.3246910000000  0.4308810000000 -0.0274620000000 1.0   0.01
Li     1  0.1141770000000  0.4576960000000  0.4165390000000 1.0  -0.01
Li     1 -0.4576960000000  0.6564810000000  0.4165390000000 1.0  -0.01
Li     1 -0.6564810000000 -0.1141770000000  0.4165390000000 1.0  -0.01
O      2  0.3333330000000 -0.3333330000000  0.1307360000000 1.0  -0.01
S      3 -0.3044160000000  0.0209310000000 -0.4466660000000 1.0  -0.11
S      3 -0.0209310000000 -0.3253470000000 -0.4466660000000 1.0  -0.11
S      3  0.3253470000000  0.3044160000000 -0.4466660000000 1.0  -0.11
Fe     4 -0.0000000000000  0.0000000000000 -0.4639930000000 1.0  -3.66
END
