TITL LFSO-Li2Fe4S4O-201024-074215-0322ab -0.0093 271.820632 -5.49990217E+003 14.0001 14.4912 11 (R3) n - 1
REM
REM Run started: Sat, 24 Oct 2020 09:57:03 +0100 in /lustre/scratch/uccabz1/launch_tmp/launcher_2020-10-24-06-42-13-914546
REM CASTEP 20.1 from code version af48c487+ pr-geom-scf-spinfix Tue Jun 2 15:39:59 2020 +0100
REM Functional Perdew Burke Ernzerhof Relativity Koelling-Harmon Dispersion off
REM Cut-off 340.0000 eV Grid scale 1.7500 Gmax 16.5316 1/A FBSC none
REM MP grid 3 3 3 Offset 0.000 0.000 0.000 No. kpts 6 Spacing 0.07
REM Total runtime: 8227.14 s
REM Overall efficiency: 71.6667 %
REM
REM
REM
REM compiler GCC version 4.9.2
REM options -cpp -iprefix /lustre/shared/ucl/apps/gcc/4.9.2/bin/../lib/gcc/x86_64-unknown-linux-gnu/4.9.2/ -mtune=corei7 -march=x86-64 -g -Og
REM COMMAND_LINE
REM seed -1892764760 461557828 1058814147 -28140711 -523930881 -2068416555 828525688 -197092600 1286479064 972435509 -309690042 -837839892
REM
REM S 3|1.8|5|6|7|30:31:32(qc=5)
REM O 2|1.5|12|13|15|20:21(qc=5)
REM Li 1|1.3|8|9|10|10U:20(qc=5)
REM Fe 3|2.2|2.0|1.0|8|9|10|40:41:32(qc=5)
REM Fe d:4.0 
REM
CELL 1.54180    8.06442    8.06442    8.06442   48.72392   48.72393   48.72393
LATT -1
SFAC Li O  S  Fe 
Li     1  0.4088960000000  0.4088960000000  0.4088960000000 1.0  -0.02
Li     1 -0.1706090000000 -0.1706090000000 -0.1706090000000 1.0   0.04
O      2  0.3179760000000  0.3179760000000  0.3179760000000 1.0   0.15
S      3  0.1932840000000 -0.1542670000000 -0.5286510000000 1.0  -0.02
S      3 -0.1542670000000 -0.5286510000000  0.1932840000000 1.0  -0.02
S      3 -0.5286510000000  0.1932840000000 -0.1542670000000 1.0  -0.02
S      3 -0.3402130000000 -0.3402130000000 -0.3402130000000 1.0   0.14
Fe     4 -0.0277950000000 -0.5186240000000  0.3711120000000 1.0   3.60
Fe     4 -0.5186240000000  0.3711120000000 -0.0277950000000 1.0   3.60
Fe     4  0.3711120000000 -0.0277950000000 -0.5186240000000 1.0   3.60
Fe     4 -0.4644930000000 -0.4644930000000 -0.4644930000000 1.0   2.96
END
