TITL LFSO-Li5FeS2O2-201026-174528-5b54f0 -0.0291 138.178767 -3.34408988E+003 5.00000 5.14732 10 (C2) n - 1
REM
REM Run started: Mon, 26 Oct 2020 19:14:30 +0000 in /scratch/scratch/uccabz1/launch_tmp/launcher_2020-10-26-17-45-27-353378
REM CASTEP 19.11| from code version Version unavailable
REM Functional Perdew Burke Ernzerhof Relativity Koelling-Harmon Dispersion off
REM Cut-off 340.0000 eV Grid scale 1.7500 Gmax 16.5316 1/A FBSC none
REM MP grid 4 4 2 Offset 0.000 0.000 0.000 No. kpts 10 Spacing 0.07
REM Total runtime: 5896 s
REM Overall efficiency: 72.2 %
REM
REM
REM
REM compiler GCC version 4.9.2
REM options -cpp -iprefix /scratch/UCL/applications/gcc/4.9.2/bin/../lib/gcc/x86_64-unknown-linux-gnu/4.9.2/ -mtune=corei7 -march=x86-64 -g -O2
REM COMMAND_LINE
REM seed -1304004386 587504345 -1135000248 -886968715 203506489 768608454 -1247778382 -1715853155 1403197432 -621494733 -21572658 -1420838050
REM
REM S 3|1.8|5|6|7|30:31:32(qc=5)
REM O 2|1.5|12|13|15|20:21(qc=5)
REM Li 1|1.3|8|9|10|10U:20(qc=5)
REM Fe 3|2.2|2.0|1.0|8|9|10|40:41:32(qc=5)
REM Fe d:4.0 
REM
CELL 1.54180    3.90898    3.90898    9.13716   95.79704   95.79704   88.60859
LATT -1
SFAC Li O  S  Fe 
Li     1 -0.1259760000000 -0.0835050000000  0.1127070000000 1.0  -0.04
Li     1  0.0835050000000  0.1259760000000 -0.1127070000000 1.0  -0.04
Li     1 -0.3787720000000  0.5539150000000 -0.1338980000000 1.0   0.02
Li     1 -0.5539150000000  0.3787720000000  0.1338980000000 1.0   0.02
Li     1 -0.4802040000000  0.4802040000000 -0.5000000000000 1.0  -0.11
O      2 -0.0564170000000 -0.5798910000000  0.0733300000000 1.0   0.52
O      2  0.5798910000000  0.0564170000000 -0.0733300000000 1.0   0.52
S      3  0.0543160000000  0.5127340000000 -0.3429530000000 1.0   0.10
S      3 -0.5127340000000 -0.0543160000000  0.3429530000000 1.0   0.10
Fe     4  0.0216750000000 -0.0216750000000  0.5000000000000 1.0   3.92
END
