TITL LFSO-Li2FeSO-201025-052201-a5ff9d 0.0538 65.116571 -2.00356424E+003 4.00000 4.04645 5 (P3m1) n - 1
REM
REM Run started: Sun, 25 Oct 2020 05:34:37 +0000 in /lustre/scratch/uccabz1/launch_tmp/launcher_2020-10-25-05-21-59-219320
REM CASTEP 20.1 from code version af48c487+ pr-geom-scf-spinfix Tue Jun 2 15:39:59 2020 +0100
REM Functional Perdew Burke Ernzerhof Relativity Koelling-Harmon Dispersion off
REM Cut-off 340.0000 eV Grid scale 1.7500 Gmax 16.5316 1/A FBSC none
REM MP grid 3 5 5 Offset 0.000 0.000 0.000 No. kpts 12 Spacing 0.07
REM Total runtime: 792.99 s
REM Overall efficiency: 73.8571 %
REM
REM
REM
REM compiler GCC version 4.9.2
REM options -cpp -iprefix /lustre/shared/ucl/apps/gcc/4.9.2/bin/../lib/gcc/x86_64-unknown-linux-gnu/4.9.2/ -mtune=corei7 -march=x86-64 -g -Og
REM COMMAND_LINE
REM seed 990866750 1162323182 -450989672 1767752749 -2014870840 770967526 -1003564911 -1590105609 -170084470 -1291358776 -1463900347 -1265589764
REM
REM S 3|1.8|5|6|7|30:31:32(qc=5)
REM O 2|1.5|12|13|15|20:21(qc=5)
REM Li 1|1.3|8|9|10|10U:20(qc=5)
REM Fe 3|2.2|2.0|1.0|8|9|10|40:41:32(qc=5)
REM Fe d:4.0 
REM
CELL 1.54180    5.80522    3.59891    3.59891  120.00000   90.00000   90.00000
LATT -1
SFAC Li O  S  Fe 
Li     1  0.0798520000000 -0.3333330000000  0.3333330000000 1.0  -0.04
Li     1 -0.6431730000000  0.0000000000000 -0.0000000000000 1.0   0.02
O      2  0.0142130000000  0.0000000000000  0.0000000000000 1.0   0.08
S      3  0.5490440000000 -0.3333330000000  0.3333330000000 1.0   0.12
Fe     4 -0.2101490000000  0.3333330000000 -0.3333330000000 1.0   3.82
END
