TITL LFSO-Li2FeSO-201024-165824-b60f5c 0.0000 71.127079 -2.00167311E+003 3.46013 3.97870 5 (P4mm) n - 1
REM
REM Run started: Sat, 24 Oct 2020 17:03:56 +0100 in /lustre/scratch/uccabz1/launch_tmp/launcher_2020-10-24-15-58-21-012727
REM CASTEP 20.1 from code version af48c487+ pr-geom-scf-spinfix Tue Jun 2 15:39:59 2020 +0100
REM Functional Perdew Burke Ernzerhof Relativity Koelling-Harmon Dispersion off
REM Cut-off 340.0000 eV Grid scale 1.7500 Gmax 16.5316 1/A FBSC none
REM MP grid 5 5 3 Offset 0.000 0.000 0.000 No. kpts 12 Spacing 0.07
REM Total runtime: 585.66 s
REM Overall efficiency: 82.8 %
REM
REM
REM
REM compiler GCC version 4.9.2
REM options -cpp -iprefix /lustre/shared/ucl/apps/gcc/4.9.2/bin/../lib/gcc/x86_64-unknown-linux-gnu/4.9.2/ -mtune=corei7 -march=x86-64 -g -Og
REM COMMAND_LINE
REM seed -1696173687 1398460265 1313042771 -956327939 -328232356 1971417830 858118901 564981919 -1114159014 69147273 -1324066138 -1036201791
REM
REM S 3|1.8|5|6|7|30:31:32(qc=5)
REM O 2|1.5|12|13|15|20:21(qc=5)
REM Li 1|1.3|8|9|10|10U:20(qc=5)
REM Fe 3|2.2|2.0|1.0|8|9|10|40:41:32(qc=5)
REM Fe d:4.0 
REM
CELL 1.54180    3.38506    3.38506    6.20730   90.00000   90.00000   90.00000
LATT -1
SFAC Li O  S  Fe 
Li     1 -0.0000000000000 -0.5000000000000 -0.0756850000000 1.0  -0.02
Li     1 -0.5000000000000 -0.0000000000000 -0.0756850000000 1.0  -0.02
O      2 -0.0000000000000 -0.0000000000000  0.1158630000000 1.0   0.02
S      3  0.5000000000000  0.5000000000000 -0.3307140000000 1.0  -0.26
Fe     4 -0.5000000000000 -0.5000000000000  0.2941270000000 1.0   3.73
END
