TITL LFSO-Li2Fe4S3O2-201026-113616-7c9daf 0.0072 193.119949 -5.63609821E+003 15.9752 16.1037 11 (P-1) n - 1
REM
REM Run started: Mon, 26 Oct 2020 13:53:14 +0000 in /lustre/scratch/uccabz1/launch_tmp/launcher_2020-10-26-11-36-14-392688
REM CASTEP 20.1 from code version af48c487+ pr-geom-scf-spinfix Tue Jun 2 15:39:59 2020 +0100
REM Functional Perdew Burke Ernzerhof Relativity Koelling-Harmon Dispersion off
REM Cut-off 340.0000 eV Grid scale 1.7500 Gmax 16.5316 1/A FBSC none
REM MP grid 3 5 2 Offset 0.000 0.000 0.000 No. kpts 15 Spacing 0.07
REM Total runtime: 9010.71 s
REM Overall efficiency: 90.4444 %
REM
REM
REM
REM compiler GCC version 4.9.2
REM options -cpp -iprefix /lustre/shared/ucl/apps/gcc/4.9.2/bin/../lib/gcc/x86_64-unknown-linux-gnu/4.9.2/ -mtune=corei7 -march=x86-64 -g -Og
REM COMMAND_LINE
REM seed -819757930 1095126021 2092375324 -926818668 359752448 -902165069 2141381155 -777049871 1868700871 -63705810 -446109369 311506939
REM
REM S 3|1.8|5|6|7|30:31:32(qc=5)
REM O 2|1.5|12|13|15|20:21(qc=5)
REM Li 1|1.3|8|9|10|10U:20(qc=5)
REM Fe 3|2.2|2.0|1.0|8|9|10|40:41:32(qc=5)
REM Fe d:4.0 
REM
CELL 1.54180    6.42984    3.81446   10.17402   61.18155   63.35933   70.37483
LATT -1
SFAC Li O  S  Fe 
Li     1 -0.5777090000000  0.3534420000000  0.4464050000000 1.0  -0.05
Li     1  0.5777090000000 -0.3534420000000 -0.4464050000000 1.0  -0.05
O      2 -0.4972600000000  0.0822640000000 -0.3506280000000 1.0   0.15
O      2  0.4972600000000 -0.0822640000000  0.3506280000000 1.0   0.15
S      3  0.1860210000000 -0.1420590000000  0.1088150000000 1.0   0.14
S      3 -0.1860210000000  0.1420590000000 -0.1088150000000 1.0   0.14
S      3  0.0000000000000 -0.5000000000000 -0.5000000000000 1.0   0.12
Fe     4 -0.1931320000000 -0.1356870000000 -0.3009390000000 1.0   3.88
Fe     4  0.1931320000000  0.1356870000000  0.3009390000000 1.0   3.88
Fe     4  0.2273850000000  0.0238690000000 -0.1605480000000 1.0   3.82
Fe     4 -0.2273850000000 -0.0238690000000  0.1605480000000 1.0   3.82
END
