TITL LFSO-Li2FeSO-201025-000022-da6c9d -0.0476 349.958386 -8.01415196E+003 16.0000 16.3582 20 (I41) n - 1
REM
REM Run started: Sun, 25 Oct 2020 02:13:48 +0000 in /lustre/scratch/uccabz1/launch_tmp/launcher_2020-10-24-23-00-20-486120
REM CASTEP 20.1 from code version af48c487+ pr-geom-scf-spinfix Tue Jun 2 15:39:59 2020 +0100
REM Functional Perdew Burke Ernzerhof Relativity Koelling-Harmon Dispersion off
REM Cut-off 340.0000 eV Grid scale 1.7500 Gmax 16.5316 1/A FBSC none
REM MP grid 4 2 2 Offset 0.000 0.000 0.000 No. kpts 8 Spacing 0.07
REM Total runtime: 13882.1 s
REM Overall efficiency: 98 %
REM
REM
REM
REM compiler GCC version 4.9.2
REM options -cpp -iprefix /lustre/shared/ucl/apps/gcc/4.9.2/bin/../lib/gcc/x86_64-unknown-linux-gnu/4.9.2/ -mtune=corei7 -march=x86-64 -g -Og
REM COMMAND_LINE
REM seed -1952847593 -1215543024 1895404661 -968714668 -426939936 -1044964150 -2034202925 -1633054015 -1687832689 2101493508 1094670754 486389346
REM
REM S 3|1.8|5|6|7|30:31:32(qc=5)
REM O 2|1.5|12|13|15|20:21(qc=5)
REM Li 1|1.3|8|9|10|10U:20(qc=5)
REM Fe 3|2.2|2.0|1.0|8|9|10|40:41:32(qc=5)
REM Fe d:4.0 
REM
CELL 1.54180    4.05561    9.50800    9.50800   87.39297   77.68573   77.68573
LATT -1
SFAC Li O  S  Fe 
Li     1 -0.4659580000000  0.1726830000000  0.3302740000000 1.0   0.01
Li     1  0.0369990000000 -0.1726830000000 -0.3302740000000 1.0   0.01
Li     1 -0.0432750000000 -0.1697260000000  0.3273170000000 1.0   0.01
Li     1  0.1143160000000  0.1697260000000 -0.3273170000000 1.0   0.01
Li     1 -0.0962410000000  0.3512790000000  0.3503000000000 1.0  -0.05
Li     1 -0.3946620000000 -0.3512790000000 -0.3503000000000 1.0  -0.05
Li     1  0.5050380000000 -0.1497000000000  0.1487210000000 1.0  -0.05
Li     1 -0.4959420000000  0.1497000000000 -0.1487210000000 1.0  -0.05
O      2  0.1618430000000 -0.3720840000000 -0.2321370000000 1.0   0.16
O      2 -0.4423780000000  0.3720840000000  0.2321370000000 1.0   0.16
O      2  0.0397590000000  0.2678630000000 -0.1279160000000 1.0   0.16
O      2  0.1797060000000 -0.2678630000000  0.1279160000000 1.0   0.16
S      3 -0.5639930000000 -0.0792770000000 -0.2265170000000 1.0   0.10
S      3  0.1302130000000  0.0792770000000  0.2265170000000 1.0   0.10
S      3 -0.3932700000000  0.2734830000000 -0.4207230000000 1.0   0.10
S      3 -0.5405100000000 -0.2734830000000  0.4207230000000 1.0   0.10
Fe     4  0.2113460000000  0.4248380000000 -0.2439800000000 1.0   3.78
Fe     4  0.3922050000000 -0.4248380000000  0.2439800000000 1.0   3.78
Fe     4 -0.1138160000000  0.2560200000000  0.0751620000000 1.0   3.78
Fe     4  0.2173670000000 -0.2560200000000 -0.0751620000000 1.0   3.78
END
