TITL LFSO-Li2Fe4S4O-201024-130029-8c9c92 -0.0037 218.569985 -5.50093099E+003 16.0000 16.0854 11 (R3) n - 1
REM
REM Run started: Sat, 24 Oct 2020 14:04:23 +0100 in /lustre/scratch/uccabz1/launch_tmp/launcher_2020-10-24-12-00-26-975940
REM CASTEP 20.1 from code version af48c487+ pr-geom-scf-spinfix Tue Jun 2 15:39:59 2020 +0100
REM Functional Perdew Burke Ernzerhof Relativity Koelling-Harmon Dispersion off
REM Cut-off 340.0000 eV Grid scale 1.7500 Gmax 16.5316 1/A FBSC none
REM MP grid 3 3 3 Offset 0.000 0.000 0.000 No. kpts 6 Spacing 0.07
REM Total runtime: 4172.45 s
REM Overall efficiency: 74.4286 %
REM
REM
REM
REM compiler GCC version 4.9.2
REM options -cpp -iprefix /lustre/shared/ucl/apps/gcc/4.9.2/bin/../lib/gcc/x86_64-unknown-linux-gnu/4.9.2/ -mtune=corei7 -march=x86-64 -g -Og
REM COMMAND_LINE
REM seed 1907111588 778673175 -1486219379 903081645 768856431 1523534571 -1297101063 93416913 -1807730561 -1343790852 916392101 175437580
REM
REM S 3|1.8|5|6|7|30:31:32(qc=5)
REM O 2|1.5|12|13|15|20:21(qc=5)
REM Li 1|1.3|8|9|10|10U:20(qc=5)
REM Fe 3|2.2|2.0|1.0|8|9|10|40:41:32(qc=5)
REM Fe d:4.0 
REM
CELL 1.54180    7.21555    7.21555    7.21555   52.45309   52.45309   52.45309
LATT -1
SFAC Li O  S  Fe 
Li     1 -0.3873930000000 -0.3873930000000 -0.3873930000000 1.0  -0.05
Li     1 -0.0751110000000 -0.0751110000000 -0.0751110000000 1.0   0.00
O      2  0.1161820000000  0.1161820000000  0.1161820000000 1.0   0.16
S      3 -0.3820160000000  0.0126530000000  0.3171720000000 1.0   0.11
S      3  0.0126530000000  0.3171720000000 -0.3820160000000 1.0   0.11
S      3  0.3171720000000 -0.3820160000000  0.0126530000000 1.0   0.11
S      3 -0.2028210000000 -0.2028210000000 -0.2028210000000 1.0   0.07
Fe     4 -0.2207940000000 -0.6290510000000  0.0402500000000 1.0   3.84
Fe     4 -0.6290510000000  0.0402500000000 -0.2207940000000 1.0   3.84
Fe     4  0.0402500000000 -0.2207940000000 -0.6290510000000 1.0   3.84
Fe     4  0.2317860000000  0.2317860000000  0.2317860000000 1.0   3.98
END
