TITL LFSO-Li6FeS3O-201027-125503-6acbb6 0.0970 235.521886 -3.41140387E+003 4.00000 4.18849 11 (P3) n - 1
REM
REM Run started: Tue, 27 Oct 2020 14:43:33 +0000 in /scratch/scratch/uccabz1/launch_tmp/launcher_2020-10-27-12-55-01-305414
REM CASTEP 19.11| from code version Version unavailable
REM Functional Perdew Burke Ernzerhof Relativity Koelling-Harmon Dispersion off
REM Cut-off 340.0000 eV Grid scale 1.7500 Gmax 16.5316 1/A FBSC none
REM MP grid 3 3 4 Offset 0.000 0.000 0.000 No. kpts 10 Spacing 0.07
REM Total runtime: 6916.81 s
REM Overall efficiency: 81 %
REM
REM
REM
REM compiler GCC version 4.9.2
REM options -cpp -iprefix /scratch/UCL/applications/gcc/4.9.2/bin/../lib/gcc/x86_64-unknown-linux-gnu/4.9.2/ -mtune=corei7 -march=x86-64 -g -O2
REM COMMAND_LINE
REM seed -854356694 -53756396 115724252 2119679449 -1857964312 1555218562 -856869748 -532475646 -1397294496 2013646050 -1351913382 60334857
REM
REM S 3|1.8|5|6|7|30:31:32(qc=5)
REM O 2|1.5|12|13|15|20:21(qc=5)
REM Li 1|1.3|8|9|10|10U:20(qc=5)
REM Fe 3|2.2|2.0|1.0|8|9|10|40:41:32(qc=5)
REM Fe d:4.0 
REM
CELL 1.54180    7.13546    7.13546    5.34142   90.00000   90.00000  120.00000
LATT -1
SFAC Li O  S  Fe 
Li     1  0.0076840000000  0.2253680000000 -0.0834600000000 1.0   0.01
Li     1  0.2176840000000 -0.0076840000000 -0.0834600000000 1.0   0.01
Li     1 -0.2253680000000 -0.2176840000000 -0.0834600000000 1.0   0.01
Li     1 -0.2408170000000  0.0023690000000  0.3193270000000 1.0  -0.02
Li     1  0.2431860000000  0.2408170000000  0.3193270000000 1.0  -0.02
Li     1 -0.0023690000000 -0.2431860000000  0.3193270000000 1.0  -0.02
O      2 -0.0000000000000  0.0000000000000  0.1880290000000 1.0   0.01
S      3 -0.3646340000000  0.0013710000000 -0.2222750000000 1.0   0.12
S      3  0.3660040000000  0.3646340000000 -0.2222750000000 1.0   0.12
S      3 -0.0013710000000 -0.3660040000000 -0.2222750000000 1.0   0.12
Fe     4 -0.3333330000000  0.3333330000000 -0.2093190000000 1.0   3.65
END
