TITL LFSO-Li3FeS2O-201024-161400-77ff1c -0.0058 808.157065 -7.51623089E+003 11.0000 11.4969 21 (Cm) n - 1
REM
REM Run started: Tue, 27 Oct 2020 22:44:48 +0000 in /scratch/scratch/uccabz1/launch_tmp/launcher_2020-10-27-21-36-09-147333
REM CASTEP 19.11| from code version Version unavailable
REM Functional Perdew Burke Ernzerhof Relativity Koelling-Harmon Dispersion off
REM Cut-off 340.0000 eV Grid scale 1.7500 Gmax 16.5316 1/A FBSC none
REM MP grid 2 3 2 Offset 0.000 0.000 0.000 No. kpts 6 Spacing 0.07
REM Total runtime: 44638.4 s
REM Overall efficiency: 85.5455 %
REM
REM
REM
REM compiler GCC version 4.9.2
REM options -cpp -iprefix /lustre/shared/ucl/apps/gcc/4.9.2/bin/../lib/gcc/x86_64-unknown-linux-gnu/4.9.2/ -mtune=corei7 -march=x86-64 -g -Og
REM COMMAND_LINE
REM seed -800549154 -1383217094 -680141984 1425535022 655683080 166954402 -449961971 559768267 -1747737905 -1142442682 7916359 348055287
REM
REM S 3|1.8|5|6|7|30:31:32(qc=5)
REM O 2|1.5|12|13|15|20:21(qc=5)
REM Li 1|1.3|8|9|10|10U:20(qc=5)
REM Fe 3|2.2|2.0|1.0|8|9|10|40:41:32(qc=5)
REM Fe d:4.0 
REM
CELL 1.54180   10.88942    9.18216   10.38730  101.95800   90.00001  126.36770
LATT -1
SFAC Li O  S  Fe 
Li     1 -0.4853770000000 -0.4390830000000  0.2941120000000 1.0  -0.01
Li     1  0.0462940000000 -0.4390830000000  0.2941120000000 1.0  -0.01
Li     1  0.0099950000000 -0.3168080000000  0.0666040000000 1.0  -0.00
Li     1 -0.3268030000000 -0.3168080000000  0.0666040000000 1.0  -0.00
Li     1  0.3055000000000 -0.0303790000000 -0.4392230000000 1.0  -0.04
Li     1 -0.3358800000000 -0.0303790000000 -0.4392230000000 1.0  -0.04
Li     1  0.3555310000000  0.2868170000000  0.0551300000000 1.0   0.00
Li     1 -0.0687130000000  0.2868170000000  0.0551300000000 1.0   0.00
Li     1 -0.0961560000000 -0.1923130000000 -0.1634380000000 1.0  -0.03
O      2 -0.4816010000000 -0.4898760000000  0.1264690000000 1.0   0.00
O      2 -0.0082750000000 -0.4898760000000  0.1264690000000 1.0   0.00
O      2 -0.2144940000000  0.5710120000000 -0.2704020000000 1.0   0.21
S      3 -0.3015340000000  0.2021130000000  0.4691620000000 1.0   0.09
S      3  0.5036470000000  0.2021130000000  0.4691620000000 1.0   0.09
S      3  0.0901480000000 -0.0174280000000  0.0243270000000 1.0   0.01
S      3 -0.1075760000000 -0.0174280000000  0.0243270000000 1.0   0.01
S      3 -0.4662020000000 -0.3432070000000 -0.4615580000000 1.0  -0.00
S      3  0.1229940000000 -0.3432070000000 -0.4615580000000 1.0  -0.00
Fe     4 -0.1114570000000  0.4950990000000 -0.3775690000000 1.0   3.79
Fe     4  0.6065560000000  0.4950990000000 -0.3775690000000 1.0   3.79
Fe     4  0.3159660000000 -0.3680690000000 -0.4457630000000 1.0   3.16
END
