TITL LFSO-Li6FeSO3-201028-062609-5c5065 -0.0041 130.481799 -3.67878061E+003 4.00000 4.09951 11 (Imm2) n - 1
REM
REM Run started: Wed, 28 Oct 2020 07:50:38 +0000 in /scratch/scratch/uccabz1/launch_tmp/launcher_2020-10-28-06-26-06-918142
REM CASTEP 19.11| from code version Version unavailable
REM Functional Perdew Burke Ernzerhof Relativity Koelling-Harmon Dispersion off
REM Cut-off 340.0000 eV Grid scale 1.7500 Gmax 16.5316 1/A FBSC none
REM MP grid 4 4 6 Offset 0.000 0.000 0.000 No. kpts 38 Spacing 0.07
REM Total runtime: 5808.12 s
REM Overall efficiency: 89.3333 %
REM
REM
REM
REM compiler GCC version 4.9.2
REM options -cpp -iprefix /scratch/UCL/applications/gcc/4.9.2/bin/../lib/gcc/x86_64-unknown-linux-gnu/4.9.2/ -mtune=corei7 -march=x86-64 -g -O2
REM COMMAND_LINE
REM seed -61596886 129687802 2084481526 -1042946600 1199009172 1373459675 -1569415347 -1942906723 1693479183 -876486435 117542056 74970245
REM
REM S 3|1.8|5|6|7|30:31:32(qc=5)
REM O 2|1.5|12|13|15|20:21(qc=5)
REM Li 1|1.3|8|9|10|10U:20(qc=5)
REM Fe 3|2.2|2.0|1.0|8|9|10|40:41:32(qc=5)
REM Fe d:4.0 
REM
CELL 1.54180    6.02081    8.32601    5.75919  136.28993  121.51444   90.00000
LATT -1
SFAC Li O  S  Fe 
Li     1  0.2272130000000 -0.3138210000000  0.0695240000000 1.0  -0.02
Li     1 -0.1576890000000  0.3833440000000  0.0695240000000 1.0  -0.02
Li     1  0.2272130000000  0.3833440000000  0.0695240000000 1.0  -0.02
Li     1 -0.1576890000000 -0.3138210000000  0.0695240000000 1.0  -0.02
Li     1 -0.4300330000000 -0.0791280000000 -0.8600660000000 1.0  -0.01
Li     1 -0.4300330000000 -0.7809380000000 -0.8600660000000 1.0  -0.01
O      2  0.2714320000000  0.0386560000000  0.5428650000000 1.0   0.08
O      2  0.2714320000000  0.5042090000000  0.5428650000000 1.0   0.08
O      2 -0.1581960000000  0.3418040000000 -0.3163910000000 1.0   0.01
S      3  0.7428970000000  0.7428970000000  0.4857930000000 1.0   0.09
Fe     4  0.1939740000000  0.1939740000000 -0.6120520000000 1.0   3.84
END
