TITL LFSO-Li4Fe3S4O-201028-200019-9061ea -0.0141 472.726512 -1.00782845E+004 9.38583 23.6606 24 (I-4) n - 1
REM
REM Run started: Thu, 29 Oct 2020 23:21:53 +0000 in /lustre/scratch/uccabz1/launch_tmp/launcher_2020-10-29-22-34-52-999381
REM CASTEP 20.1 from code version af48c487+ pr-geom-scf-spinfix Tue Jun 2 15:39:59 2020 +0100
REM Functional Perdew Burke Ernzerhof Relativity Koelling-Harmon Dispersion off
REM Cut-off 340.0000 eV Grid scale 1.7500 Gmax 16.5316 1/A FBSC none
REM MP grid 2 3 3 Offset 0.000 0.000 0.000 No. kpts 9 Spacing 0.07
REM Total runtime: 92342.6 s
REM Overall efficiency: 78.3636 %
REM
REM
REM
REM compiler GCC version 4.9.2
REM options -cpp -iprefix /scratch/UCL/applications/gcc/4.9.2/bin/../lib/gcc/x86_64-unknown-linux-gnu/4.9.2/ -mtune=corei7 -march=x86-64 -g -O2
REM COMMAND_LINE
REM seed 1085811006 2128419368 -1449531215 1956367151 -1942752545 1992741768 -687026952 -1999944124 697791065 -1902188812 210223894 1391442133
REM
REM S 3|1.8|5|6|7|30:31:32(qc=5)
REM O 2|1.5|12|13|15|20:21(qc=5)
REM Li 1|1.3|8|9|10|10U:20(qc=5)
REM Fe 3|2.2|2.0|1.0|8|9|10|40:41:32(qc=5)
REM Fe d:4.0 
REM
CELL 1.54180    9.26452    9.26452    9.26452  140.88461   96.43417   96.43417
LATT -1
SFAC Li O  S  Fe 
Li     1  0.3289740000000  0.3344370000000  0.0056770000000 1.0  -0.07
Li     1 -0.3289740000000 -0.3232970000000  0.0054630000000 1.0  -0.07
Li     1 -0.3287600000000 -0.0054630000000 -0.3344370000000 1.0  -0.07
Li     1  0.3287600000000 -0.0056770000000  0.3232970000000 1.0  -0.07
Li     1  0.3666990000000 -0.3158830000000 -0.3100780000000 1.0   0.03
Li     1 -0.3666990000000  0.3232230000000  0.3174180000000 1.0   0.03
Li     1  0.0058050000000 -0.3174180000000  0.3158830000000 1.0   0.03
Li     1 -0.0058050000000  0.3100780000000 -0.3232230000000 1.0   0.03
O      2 -0.5000000000000 -0.0234570000000  0.4765430000000 1.0   0.33
O      2 -0.5000000000000 -0.4765430000000  0.0234570000000 1.0   0.33
S      3  0.5000490000000  0.0832950000000 -0.0837380000000 1.0   0.14
S      3 -0.5000490000000  0.4162130000000 -0.4167540000000 1.0   0.14
S      3 -0.1670330000000  0.4167540000000 -0.0832950000000 1.0   0.14
S      3  0.1670330000000  0.0837380000000 -0.4162130000000 1.0   0.14
S      3  0.1858640000000 -0.3090110000000 -0.1192910000000 1.0  -0.00
S      3 -0.1858640000000 -0.3051550000000 -0.4948740000000 1.0  -0.00
S      3  0.1897190000000  0.4948740000000  0.3090110000000 1.0  -0.00
S      3 -0.1897190000000  0.1192910000000  0.3051550000000 1.0  -0.00
Fe     4  0.3480630000000 -0.5531240000000 -0.2045860000000 1.0   3.82
Fe     4 -0.3480630000000 -0.5526490000000  0.0988130000000 1.0   3.82
Fe     4  0.3485380000000 -0.0988130000000  0.5531240000000 1.0   3.82
Fe     4 -0.3485380000000  0.2045860000000  0.5526490000000 1.0   3.82
Fe     4 -0.0000000000000  0.2872570000000  0.2872570000000 1.0  -3.45
Fe     4 -0.0000000000000 -0.2872570000000 -0.2872570000000 1.0  -3.45
END
