TITL LFSO-Li4Fe3S4O-201029-042501-303aba 0.0196 225.341498 -5.03979121E+003 12.0000 12.1653 12 (P3) n - 1
REM
REM Run started: Thu, 29 Oct 2020 06:36:06 +0000 in /lustre/scratch/uccabz1/launch_tmp/launcher_2020-10-29-04-25-00-164248
REM CASTEP 20.1 from code version af48c487+ pr-geom-scf-spinfix Tue Jun 2 15:39:59 2020 +0100
REM Functional Perdew Burke Ernzerhof Relativity Koelling-Harmon Dispersion off
REM Cut-off 340.0000 eV Grid scale 1.7500 Gmax 16.5316 1/A FBSC none
REM MP grid 3 3 4 Offset 0.000 0.000 0.000 No. kpts 10 Spacing 0.07
REM Total runtime: 8012.94 s
REM Overall efficiency: 80 %
REM
REM
REM
REM compiler GCC version 4.9.2
REM options -cpp -iprefix /lustre/shared/ucl/apps/gcc/4.9.2/bin/../lib/gcc/x86_64-unknown-linux-gnu/4.9.2/ -mtune=corei7 -march=x86-64 -g -Og
REM COMMAND_LINE
REM seed -2136616924 -1623752946 723481407 -444637617 -1181521083 25380099 -944036015 -1228203337 645788396 -687012522 -547890837 -279532240
REM
REM S 3|1.8|5|6|7|30:31:32(qc=5)
REM O 2|1.5|12|13|15|20:21(qc=5)
REM Li 1|1.3|8|9|10|10U:20(qc=5)
REM Fe 3|2.2|2.0|1.0|8|9|10|40:41:32(qc=5)
REM Fe d:4.0 
REM
CELL 1.54180    7.56645    7.56645    4.54491   90.00000   90.00000  120.00000
LATT -1
SFAC Li O  S  Fe 
Li     1  0.3804690000000  0.2977870000000 -0.0199110000000 1.0  -0.05
Li     1 -0.2977870000000  0.0826830000000 -0.0199110000000 1.0  -0.05
Li     1 -0.0826830000000 -0.3804690000000 -0.0199110000000 1.0  -0.05
Li     1  0.3333330000000 -0.3333330000000  0.0187550000000 1.0  -0.05
O      2  0.3333330000000 -0.3333330000000  0.4717240000000 1.0   0.23
S      3  0.2666500000000 -0.0576050000000 -0.0199680000000 1.0   0.12
S      3  0.0576050000000  0.3242550000000 -0.0199680000000 1.0   0.12
S      3 -0.3242550000000 -0.2666500000000 -0.0199680000000 1.0   0.12
S      3 -0.3333330000000  0.3333330000000  0.4789350000000 1.0   0.09
Fe     4  0.3893280000000 -0.0427550000000 -0.5193370000000 1.0   3.84
Fe     4  0.0427550000000  0.4320830000000 -0.5193370000000 1.0   3.84
Fe     4 -0.4320830000000 -0.3893280000000 -0.5193370000000 1.0   3.84
END
