TITL LFSO-Li4Fe3S4O-201028-231216-487672 -0.1120 640.852760 -1.00721324E+004 22.4186 23.5812 24 (P2221) n - 1
REM
REM Run started: Thu, 29 Oct 2020 15:03:56 +0000 in /lustre/scratch/uccabz1/launch_tmp/launcher_2020-10-28-23-12-14-118056
REM CASTEP 20.1 from code version af48c487+ pr-geom-scf-spinfix Tue Jun 2 15:39:59 2020 +0100
REM Functional Perdew Burke Ernzerhof Relativity Koelling-Harmon Dispersion off
REM Cut-off 340.0000 eV Grid scale 1.7500 Gmax 16.5316 1/A FBSC none
REM MP grid 4 2 2 Offset 0.000 0.000 0.000 No. kpts 2 Spacing 0.07
REM Total runtime: 62234.6 s
REM Overall efficiency: 77.6667 %
REM
REM
REM
REM compiler GCC version 4.9.2
REM options -cpp -iprefix /lustre/shared/ucl/apps/gcc/4.9.2/bin/../lib/gcc/x86_64-unknown-linux-gnu/4.9.2/ -mtune=corei7 -march=x86-64 -g -Og
REM COMMAND_LINE
REM seed 1821448948 456726228 849493346 1153006609 1872943507 -651912275 1412356521 2067459651 1162673578 -128251413 1030015865 473142590
REM
REM S 3|1.8|5|6|7|30:31:32(qc=5)
REM O 2|1.5|12|13|15|20:21(qc=5)
REM Li 1|1.3|8|9|10|10U:20(qc=5)
REM Fe 3|2.2|2.0|1.0|8|9|10|40:41:32(qc=5)
REM Fe d:4.0 
REM
CELL 1.54180    3.96858   12.22386   13.21037   90.00000   90.00000   90.00000
LATT -1
SFAC Li O  S  Fe 
Li     1  0.4414650000000  0.0956660000000  0.0644940000000 1.0  -0.03
Li     1 -0.0585350000000 -0.0956660000000 -0.0644940000000 1.0  -0.03
Li     1  0.0585350000000  0.0956660000000 -0.0644940000000 1.0  -0.03
Li     1 -0.4414650000000 -0.0956660000000  0.0644940000000 1.0  -0.03
Li     1 -0.3813680000000 -0.3456570000000 -0.1164110000000 1.0   0.01
Li     1  0.1186320000000  0.3456570000000  0.1164110000000 1.0   0.01
Li     1 -0.1186320000000 -0.3456570000000  0.1164110000000 1.0   0.01
Li     1  0.3813680000000  0.3456570000000 -0.1164110000000 1.0   0.01
O      2 -0.0000000000000  0.0000000000000  0.1031860000000 1.0   0.07
O      2  0.5000000000000  0.0000000000000 -0.1031860000000 1.0   0.07
S      3  0.1559360000000  0.1442020000000 -0.3302980000000 1.0   0.03
S      3  0.6559360000000 -0.1442020000000  0.3302980000000 1.0   0.03
S      3 -0.6559360000000  0.1442020000000  0.3302980000000 1.0   0.03
S      3 -0.1559360000000 -0.1442020000000 -0.3302980000000 1.0   0.03
S      3  0.1191480000000 -0.2670070000000 -0.1191610000000 1.0  -0.08
S      3 -0.3808520000000  0.2670070000000  0.1191610000000 1.0  -0.08
S      3  0.3808520000000 -0.2670070000000  0.1191610000000 1.0  -0.08
S      3 -0.1191480000000  0.2670070000000 -0.1191610000000 1.0  -0.08
Fe     4 -0.1435030000000  0.1259070000000  0.2280970000000 1.0   3.86
Fe     4 -0.6435030000000 -0.1259070000000 -0.2280970000000 1.0   3.86
Fe     4  0.6435030000000  0.1259070000000 -0.2280970000000 1.0   3.86
Fe     4  0.1435030000000 -0.1259070000000  0.2280970000000 1.0   3.86
Fe     4 -0.2500000000000 -0.1253480000000  0.5000000000000 1.0   3.56
Fe     4  0.2500000000000  0.1253480000000  0.5000000000000 1.0   3.56
END
