TITL LFSO-Li6FeSO3-201028-055115-8fc866 -0.0414 151.326772 -3.67916917E+003 4.00000 4.14512 11 (R3) n - 1
REM
REM Run started: Wed, 28 Oct 2020 06:18:54 +0000 in /scratch/scratch/uccabz1/launch_tmp/launcher_2020-10-28-05-51-12-887814
REM CASTEP 19.11| from code version Version unavailable
REM Functional Perdew Burke Ernzerhof Relativity Koelling-Harmon Dispersion off
REM Cut-off 340.0000 eV Grid scale 1.7500 Gmax 16.5316 1/A FBSC none
REM MP grid 3 3 3 Offset 0.000 0.000 0.000 No. kpts 6 Spacing 0.07
REM Total runtime: 1703.56 s
REM Overall efficiency: 90.1667 %
REM
REM
REM
REM compiler GCC version 4.9.2
REM options -cpp -iprefix /scratch/UCL/applications/gcc/4.9.2/bin/../lib/gcc/x86_64-unknown-linux-gnu/4.9.2/ -mtune=corei7 -march=x86-64 -g -O2
REM COMMAND_LINE
REM seed 1375353361 -1255747162 -877217819 -409282047 2144760302 -1086222848 223928620 99547408 928477549 -453671811 -116692179 -683500302
REM
REM S 3|1.8|5|6|7|30:31:32(qc=5)
REM O 2|1.5|12|13|15|20:21(qc=5)
REM Li 1|1.3|8|9|10|10U:20(qc=5)
REM Fe 3|2.2|2.0|1.0|8|9|10|40:41:32(qc=5)
REM Fe d:4.0 
REM
CELL 1.54180    5.39003    5.39003    5.39003   80.97273   80.97273   80.97273
LATT -1
SFAC Li O  S  Fe 
Li     1  0.4548210000000 -0.1393060000000  0.2566190000000 1.0  -0.07
Li     1 -0.1393060000000  0.2566190000000  0.4548210000000 1.0  -0.07
Li     1  0.2566190000000  0.4548210000000 -0.1393060000000 1.0  -0.07
Li     1 -0.1811590000000  0.2858480000000 -0.0843060000000 1.0   0.03
Li     1  0.2858480000000 -0.0843060000000 -0.1811590000000 1.0   0.03
Li     1 -0.0843060000000 -0.1811590000000  0.2858480000000 1.0   0.03
O      2 -0.3273730000000  0.1384550000000  0.2281060000000 1.0   0.08
O      2  0.1384550000000  0.2281060000000 -0.3273730000000 1.0   0.08
O      2  0.2281060000000 -0.3273730000000  0.1384550000000 1.0   0.08
S      3 -0.3755170000000 -0.3755170000000 -0.3755170000000 1.0   0.01
Fe     4  0.3633400000000  0.3633400000000  0.3633400000000 1.0   3.85
END
