TITL LFSO-Li4Fe3S4O-201029-090112-b40663 0.1058 971.120287 -1.00704985E+004 -22.0000 22.7819 24 (Pm) n - 1
REM
REM Run started: Sat, 31 Oct 2020 00:47:34 +0000 in /lustre/scratch/uccabz1/launch_tmp/launcher_2020-10-30-23-28-38-496163
REM CASTEP 20.1 from code version af48c487+ pr-geom-scf-spinfix Tue Jun 2 15:39:59 2020 +0100
REM Functional Perdew Burke Ernzerhof Relativity Koelling-Harmon Dispersion off
REM Cut-off 340.0000 eV Grid scale 1.7500 Gmax 16.5316 1/A FBSC none
REM MP grid 3 1 2 Offset 0.000 0.000 0.000 No. kpts 3 Spacing 0.07
REM Total runtime: 118329 s
REM Overall efficiency: 75.1538 %
REM
REM
REM
REM compiler GCC version 4.9.2
REM options -cpp -iprefix /lustre/shared/ucl/apps/gcc/4.9.2/bin/../lib/gcc/x86_64-unknown-linux-gnu/4.9.2/ -mtune=corei7 -march=x86-64 -g -Og
REM COMMAND_LINE
REM seed -856689318 -719202738 380185481 1134133149 1293789289 1059816465 1709859949 -1890820924 1478872531 906354542 -44002913 -1517103428
REM
REM S 3|1.8|5|6|7|30:31:32(qc=5)
REM O 2|1.5|12|13|15|20:21(qc=5)
REM Li 1|1.3|8|9|10|10U:20(qc=5)
REM Fe 3|2.2|2.0|1.0|8|9|10|40:41:32(qc=5)
REM Fe d:4.0 
REM
CELL 1.54180    5.99661   18.08698    9.04538   90.00000   98.16539   90.00000
LATT -1
SFAC Li O  S  Fe 
Li     1 -0.0425210000000  0.2920440000000 -0.3254950000000 1.0   0.01
Li     1 -0.0425210000000 -0.2920440000000 -0.3254950000000 1.0   0.01
Li     1 -0.0824530000000  0.2536200000000  0.3241050000000 1.0   0.01
Li     1 -0.0824530000000 -0.2536200000000  0.3241050000000 1.0   0.01
Li     1 -0.3551970000000 -0.1550170000000 -0.1349870000000 1.0   0.09
Li     1 -0.3551970000000  0.1550170000000 -0.1349870000000 1.0   0.09
Li     1  0.4957480000000  0.2931610000000 -0.0730760000000 1.0   0.03
Li     1  0.4957480000000 -0.2931610000000 -0.0730760000000 1.0   0.03
O      2 -0.2025930000000 -0.2766860000000 -0.5086650000000 1.0  -0.16
O      2 -0.2025930000000  0.2766860000000 -0.5086650000000 1.0  -0.16
S      3  0.3084420000000  0.1769180000000  0.2956760000000 1.0  -0.07
S      3  0.3084420000000 -0.1769180000000  0.2956760000000 1.0  -0.07
S      3 -0.1244480000000 -0.2619720000000 -0.0720230000000 1.0  -0.07
S      3 -0.1244480000000  0.2619720000000 -0.0720230000000 1.0  -0.07
S      3  0.3229980000000 -0.2081370000000 -0.2839900000000 1.0  -0.04
S      3  0.3229980000000  0.2081370000000 -0.2839900000000 1.0  -0.04
S      3 -0.4562010000000 -0.2027360000000  0.1412120000000 1.0  -0.08
S      3 -0.4562010000000  0.2027360000000  0.1412120000000 1.0  -0.08
Fe     4  0.1844070000000 -0.1934750000000 -0.0000150000000 1.0  -3.58
Fe     4  0.1844070000000  0.1934750000000 -0.0000150000000 1.0  -3.58
Fe     4  0.1663720000000 -0.0862260000000 -0.2326100000000 1.0  -3.36
Fe     4  0.1663720000000  0.0862260000000 -0.2326100000000 1.0  -3.36
Fe     4 -0.4746300000000 -0.2338600000000  0.5049030000000 1.0  -3.78
Fe     4 -0.4746300000000  0.2338600000000  0.5049030000000 1.0  -3.78
END
