TITL LFSO-Li4Fe2S3O-201027-021854-993976 -0.0430 203.018403 -3.86896088E+003 8.06990 8.20150 10 (R3) n - 1
REM
REM Run started: Tue, 27 Oct 2020 02:38:25 +0000 in /lustre/scratch/uccabz1/launch_tmp/launcher_2020-10-27-02-18-52-861161
REM CASTEP 20.1 from code version af48c487+ pr-geom-scf-spinfix Tue Jun 2 15:39:59 2020 +0100
REM Functional Perdew Burke Ernzerhof Relativity Koelling-Harmon Dispersion off
REM Cut-off 340.0000 eV Grid scale 1.7500 Gmax 16.5316 1/A FBSC none
REM MP grid 3 3 3 Offset 0.000 0.000 0.000 No. kpts 6 Spacing 0.07
REM Total runtime: 1234.61 s
REM Overall efficiency: 71.5 %
REM
REM
REM
REM compiler GCC version 4.9.2
REM options -cpp -iprefix /lustre/shared/ucl/apps/gcc/4.9.2/bin/../lib/gcc/x86_64-unknown-linux-gnu/4.9.2/ -mtune=corei7 -march=x86-64 -g -Og
REM COMMAND_LINE
REM seed -796951578 129908775 -564458270 1510139698 -1754954180 158596616 -314406522 -360249919 1912112992 1931595151 633656999 -1766559723
REM
REM S 3|1.8|5|6|7|30:31:32(qc=5)
REM O 2|1.5|12|13|15|20:21(qc=5)
REM Li 1|1.3|8|9|10|10U:20(qc=5)
REM Fe 3|2.2|2.0|1.0|8|9|10|40:41:32(qc=5)
REM Fe d:4.0 
REM
CELL 1.54180    5.88456    5.88456    5.88456   87.10873   87.10873   87.10873
LATT -1
SFAC Li O  S  Fe 
Li     1 -0.2279490000000  0.2988530000000  0.4219290000000 1.0  -0.06
Li     1  0.2988530000000  0.4219290000000 -0.2279490000000 1.0  -0.06
Li     1  0.4219290000000 -0.2279490000000  0.2988530000000 1.0  -0.06
Li     1  0.3597970000000  0.3597970000000  0.3597970000000 1.0   0.01
O      2 -0.0455040000000 -0.0455040000000 -0.0455040000000 1.0   0.28
S      3  0.4983800000000  0.0464070000000 -0.4337150000000 1.0   0.05
S      3  0.0464070000000 -0.4337150000000  0.4983800000000 1.0   0.05
S      3 -0.4337150000000  0.4983800000000  0.0464070000000 1.0   0.05
Fe     4 -0.2339300000000 -0.2339300000000 -0.2339300000000 1.0   3.90
Fe     4  0.1192690000000  0.1192690000000  0.1192690000000 1.0   3.91
END
