TITL LFSO-Li5FeS2O2-201026-060735-0f0c23 -0.0018 343.968894 -6.68982240E+003 6.00000 6.84890 20 (Pc) n - 1
REM
REM Run started: Mon, 26 Oct 2020 06:48:42 +0000 in /lustre/scratch/uccabz1/launch_tmp/launcher_2020-10-26-06-07-33-604751
REM CASTEP 20.1 from code version af48c487+ pr-geom-scf-spinfix Tue Jun 2 15:39:59 2020 +0100
REM Functional Perdew Burke Ernzerhof Relativity Koelling-Harmon Dispersion off
REM Cut-off 340.0000 eV Grid scale 1.7500 Gmax 16.5316 1/A FBSC none
REM MP grid 3 2 3 Offset 0.000 0.000 0.000 No. kpts 6 Spacing 0.07
REM Total runtime: 2650.06 s
REM Overall efficiency: 73.5714 %
REM
REM
REM
REM compiler GCC version 4.9.2
REM options -cpp -iprefix /lustre/shared/ucl/apps/gcc/4.9.2/bin/../lib/gcc/x86_64-unknown-linux-gnu/4.9.2/ -mtune=corei7 -march=x86-64 -g -Og
REM COMMAND_LINE
REM seed 342359676 833901598 -373398267 1648474681 -799405911 -1303327980 370556026 468774813 362438755 1364981919 -356513415 -1551335253
REM
REM S 3|1.8|5|6|7|30:31:32(qc=5)
REM O 2|1.5|12|13|15|20:21(qc=5)
REM Li 1|1.3|8|9|10|10U:20(qc=5)
REM Fe 3|2.2|2.0|1.0|8|9|10|40:41:32(qc=5)
REM Fe d:4.0 
REM
CELL 1.54180    5.79140    9.05563    6.62060   90.00000   90.00000   97.84180
LATT -1
SFAC Li O  S  Fe 
Li     1 -0.1970940000000 -0.2397210000000 -0.4011010000000 1.0  -0.03
Li     1  0.3029060000000 -0.2397210000000  0.4011010000000 1.0  -0.03
Li     1  0.4505730000000  0.0519820000000  0.0130860000000 1.0  -0.00
Li     1 -0.0494270000000  0.0519820000000 -0.0130860000000 1.0  -0.00
Li     1 -0.4557730000000  0.4071090000000 -0.0704900000000 1.0   0.00
Li     1  0.0442270000000  0.4071090000000  0.0704900000000 1.0   0.00
Li     1  0.0764440000000  0.3856390000000 -0.3736330000000 1.0   0.01
Li     1 -0.4235560000000  0.3856390000000  0.3736330000000 1.0   0.01
Li     1 -0.1665020000000  0.0945070000000  0.4306220000000 1.0   0.01
Li     1  0.3334980000000  0.0945070000000 -0.4306220000000 1.0   0.01
O      2 -0.0050820000000 -0.3253540000000  0.4106270000000 1.0   0.02
O      2 -0.5050820000000 -0.3253540000000 -0.4106270000000 1.0   0.02
O      2 -0.2537830000000 -0.5211550000000  0.1449370000000 1.0   0.03
O      2  0.2462170000000 -0.5211550000000 -0.1449370000000 1.0   0.03
S      3 -0.2957680000000  0.2172160000000 -0.2762700000000 1.0  -0.01
S      3  0.2042320000000  0.2172160000000  0.2762700000000 1.0  -0.01
S      3 -0.3413550000000 -0.1032770000000  0.2161200000000 1.0  -0.04
S      3  0.1586450000000 -0.1032770000000 -0.2161200000000 1.0  -0.04
Fe     4 -0.2046710000000 -0.3285840000000  0.2134010000000 1.0   3.00
Fe     4  0.2953290000000 -0.3285840000000 -0.2134010000000 1.0   3.00
END
