TITL LFSO-Li6FeS3O-201027-181246-0ea997 -0.0244 233.050072 -3.40971918E+003 -0.528121E-06 2.57169 11 (P3) n - 1
REM
REM Run started: Tue, 27 Oct 2020 20:06:32 +0000 in /lustre/scratch/uccabz1/launch_tmp/launcher_2020-10-27-18-12-44-444621
REM CASTEP 20.1 from code version af48c487+ pr-geom-scf-spinfix Tue Jun 2 15:39:59 2020 +0100
REM Functional Perdew Burke Ernzerhof Relativity Koelling-Harmon Dispersion off
REM Cut-off 340.0000 eV Grid scale 1.7500 Gmax 16.5316 1/A FBSC none
REM MP grid 3 3 4 Offset 0.000 0.000 0.000 No. kpts 10 Spacing 0.07
REM Total runtime: 7312.81 s
REM Overall efficiency: 78.7273 %
REM
REM
REM
REM compiler GCC version 4.9.2
REM options -cpp -iprefix /lustre/shared/ucl/apps/gcc/4.9.2/bin/../lib/gcc/x86_64-unknown-linux-gnu/4.9.2/ -mtune=corei7 -march=x86-64 -g -Og
REM COMMAND_LINE
REM seed -982171973 777519959 437893246 -1380280353 1202802753 -108365841 -601890653 1543821146 370032267 2076495633 1456640622 -809542527
REM
REM S 3|1.8|5|6|7|30:31:32(qc=5)
REM O 2|1.5|12|13|15|20:21(qc=5)
REM Li 1|1.3|8|9|10|10U:20(qc=5)
REM Fe 3|2.2|2.0|1.0|8|9|10|40:41:32(qc=5)
REM Fe d:4.0 
REM
CELL 1.54180    6.92696    6.92696    5.60833   90.00000   90.00000  120.00000
LATT -1
SFAC Li O  S  Fe 
Li     1  0.2306380000000  0.2317250000000 -0.5003890000000 1.0   0.03
Li     1 -0.2317250000000 -0.0010870000000 -0.5003890000000 1.0   0.03
Li     1  0.0010870000000 -0.2306380000000 -0.5003890000000 1.0   0.03
Li     1 -0.0006560000000  0.2434060000000 -0.1049830000000 1.0  -0.01
Li     1 -0.2434060000000 -0.2440620000000 -0.1049830000000 1.0  -0.01
Li     1  0.2440620000000  0.0006560000000 -0.1049830000000 1.0  -0.01
O      2  0.0000000000000 -0.0000000000000 -0.2326530000000 1.0   0.01
S      3  0.3766520000000 -0.0110130000000  0.3920350000000 1.0   0.14
S      3  0.0110130000000  0.3876650000000  0.3920350000000 1.0   0.14
S      3 -0.3876650000000 -0.3766520000000  0.3920350000000 1.0   0.14
Fe     4 -0.3333330000000  0.3333330000000  0.3751270000000 1.0  -0.48
END
