TITL LFSO-Li4Fe2S3O-201026-064607-1e1709 0.0771 206.012663 -3.87225728E+003 8.00003 8.14514 10 (R3) n - 1
REM
REM Run started: Mon, 26 Oct 2020 08:32:31 +0000 in /lustre/scratch/uccabz1/launch_tmp/launcher_2020-10-26-06-46-06-100236
REM CASTEP 20.1 from code version af48c487+ pr-geom-scf-spinfix Tue Jun 2 15:39:59 2020 +0100
REM Functional Perdew Burke Ernzerhof Relativity Koelling-Harmon Dispersion off
REM Cut-off 340.0000 eV Grid scale 1.7500 Gmax 16.5316 1/A FBSC none
REM MP grid 3 3 4 Offset 0.000 0.000 0.000 No. kpts 14 Spacing 0.07
REM Total runtime: 6432.91 s
REM Overall efficiency: 86 %
REM
REM
REM
REM compiler GCC version 4.9.2
REM options -cpp -iprefix /lustre/shared/ucl/apps/gcc/4.9.2/bin/../lib/gcc/x86_64-unknown-linux-gnu/4.9.2/ -mtune=corei7 -march=x86-64 -g -Og
REM COMMAND_LINE
REM seed 1569524591 1601964991 950123468 -786542729 496888230 -2145756928 1449629693 1649404078 -958623524 1125350412 -2129322654 886904710
REM
REM S 3|1.8|5|6|7|30:31:32(qc=5)
REM O 2|1.5|12|13|15|20:21(qc=5)
REM Li 1|1.3|8|9|10|10U:20(qc=5)
REM Fe 3|2.2|2.0|1.0|8|9|10|40:41:32(qc=5)
REM Fe d:4.0 
REM
CELL 1.54180    7.72139    7.72139    5.98275   49.81155   49.81155   60.00000
LATT -1
SFAC Li O  S  Fe 
Li     1 -0.4651530000000 -0.8329440000000  0.1702620000000 1.0  -0.06
Li     1 -0.8329440000000  0.1278340000000  0.1702620000000 1.0  -0.06
Li     1  0.1278340000000 -0.4651530000000  0.1702620000000 1.0  -0.06
Li     1  0.5912740000000  0.5912740000000 -0.7738230000000 1.0   0.05
O      2  0.2355490000000  0.2355490000000 -0.7066460000000 1.0   0.10
S      3 -0.2151190000000 -0.1906730000000  0.1452140000000 1.0   0.11
S      3 -0.1906730000000  0.2605770000000  0.1452140000000 1.0   0.11
S      3  0.2605770000000 -0.2151190000000  0.1452140000000 1.0   0.11
Fe     4  0.0760550000000  0.0760550000000 -0.2281650000000 1.0   3.86
Fe     4 -0.1469770000000 -0.1469770000000  0.4409300000000 1.0   3.82
END
