TITL LFSO-Li6FeSO3-201028-062723-978385 -0.0265 335.333434 -7.35678692E+003 8.00000 8.26617 22 (Iba2) n - 1
REM
REM Run started: Wed, 28 Oct 2020 08:34:13 +0000 in /lustre/scratch/uccabz1/launch_tmp/launcher_2020-10-28-06-27-21-427345
REM CASTEP 20.1 from code version af48c487+ pr-geom-scf-spinfix Tue Jun 2 15:39:59 2020 +0100
REM Functional Perdew Burke Ernzerhof Relativity Koelling-Harmon Dispersion off
REM Cut-off 340.0000 eV Grid scale 1.7500 Gmax 16.5316 1/A FBSC none
REM MP grid 3 2 2 Offset 0.000 0.000 0.000 No. kpts 5 Spacing 0.07
REM Total runtime: 7831.1 s
REM Overall efficiency: 85.6667 %
REM
REM
REM
REM compiler GCC version 4.9.2
REM options -cpp -iprefix /lustre/shared/ucl/apps/gcc/4.9.2/bin/../lib/gcc/x86_64-unknown-linux-gnu/4.9.2/ -mtune=corei7 -march=x86-64 -g -Og
REM COMMAND_LINE
REM seed -866213673 -1907900915 -866353276 -719531300 -2131618683 -882668960 -250940027 1919613754 1264944658 915787556 -928197515 414129412
REM
REM S 3|1.8|5|6|7|30:31:32(qc=5)
REM O 2|1.5|12|13|15|20:21(qc=5)
REM Li 1|1.3|8|9|10|10U:20(qc=5)
REM Fe 3|2.2|2.0|1.0|8|9|10|40:41:32(qc=5)
REM Fe d:4.0 
REM
CELL 1.54180    6.25638    7.97239    7.97239   77.16613   66.89749   66.89749
LATT -1
SFAC Li O  S  Fe 
Li     1 -0.3259640000000  0.1219550000000 -0.2380960000000 1.0  -0.02
Li     1  0.4421040000000 -0.2380960000000  0.1219550000000 1.0  -0.02
Li     1 -0.0578960000000  0.6219550000000  0.2619040000000 1.0  -0.02
Li     1  0.1740360000000  0.2619040000000  0.6219550000000 1.0  -0.02
Li     1 -0.4191170000000  0.4803430000000 -0.3061400000000 1.0  -0.02
Li     1  0.2449140000000 -0.3061400000000  0.4803430000000 1.0  -0.02
Li     1 -0.2550860000000 -0.0196570000000  0.1938600000000 1.0  -0.02
Li     1  0.0808830000000  0.1938600000000 -0.0196570000000 1.0  -0.02
Li     1  0.1734810000000  0.5175400000000 -0.2478780000000 1.0  -0.00
Li     1 -0.4431430000000 -0.2478780000000  0.5175400000000 1.0  -0.00
Li     1  0.0568570000000  0.0175400000000  0.2521220000000 1.0  -0.00
Li     1 -0.3265190000000  0.2521220000000  0.0175400000000 1.0  -0.00
O      2 -0.0336240000000  0.1403080000000 -0.1891150000000 1.0   0.10
O      2  0.0824310000000 -0.1891150000000  0.1403080000000 1.0   0.10
O      2  0.5824310000000 -0.3596920000000  0.3108850000000 1.0   0.10
O      2  0.4663760000000  0.3108850000000 -0.3596920000000 1.0   0.10
O      2  0.2976930000000 -0.2976930000000 -0.2976930000000 1.0   0.10
O      2 -0.2023070000000  0.2023070000000  0.2023070000000 1.0   0.10
S      3  0.4166190000000  0.0833810000000  0.0833810000000 1.0   0.01
S      3 -0.0833810000000 -0.4166190000000 -0.4166190000000 1.0   0.01
Fe     4  0.1213780000000 -0.1213780000000 -0.1213780000000 1.0   3.78
Fe     4 -0.3786220000000  0.3786220000000  0.3786220000000 1.0   3.78
END
