TITL LFSO-Li2Fe3S2O2-201024-002422-471a1d 0.2631 521.347429 -8.93353515E+003 -21.9962 22.8576 18 (Pm) n - 1
REM
REM Run started: Sun, 25 Oct 2020 00:46:09 +0100 in /lustre/scratch/uccabz1/launch_tmp/launcher_2020-10-24-23-18-46-360598
REM CASTEP 20.1 from code version af48c487+ pr-geom-scf-spinfix Tue Jun 2 15:39:59 2020 +0100
REM Functional Perdew Burke Ernzerhof Relativity Koelling-Harmon Dispersion off
REM Cut-off 340.0000 eV Grid scale 1.7500 Gmax 16.5316 1/A FBSC none
REM MP grid 3 3 2 Offset 0.000 0.000 0.000 No. kpts 5 Spacing 0.07
REM Total runtime: 62971.8 s
REM Overall efficiency: 77.3333 %
REM
REM
REM
REM compiler GCC version 4.9.2
REM options -cpp -iprefix /lustre/shared/ucl/apps/gcc/4.9.2/bin/../lib/gcc/x86_64-unknown-linux-gnu/4.9.2/ -mtune=corei7 -march=x86-64 -g -Og
REM COMMAND_LINE
REM seed -2004097787 2046176118 -1834574432 -1001219111 -1866794684 -1360666307 -1208184550 852283822 -233752173 351013776 -1037086824 764901658
REM
REM S 3|1.8|5|6|7|30:31:32(qc=5)
REM O 2|1.5|12|13|15|20:21(qc=5)
REM Li 1|1.3|8|9|10|10U:20(qc=5)
REM Fe 3|2.2|2.0|1.0|8|9|10|40:41:32(qc=5)
REM Fe d:4.0 
REM
CELL 1.54180    5.99720    6.53246   13.80188   90.00000   90.00000  105.37880
LATT -1
SFAC Li O  S  Fe 
Li     1 -0.2645210000000 -0.1798710000000 -0.2080350000000 1.0   0.01
Li     1 -0.2645210000000 -0.1798710000000  0.2080350000000 1.0   0.01
Li     1 -0.3625400000000 -0.4108560000000 -0.3625940000000 1.0   0.06
Li     1 -0.3625400000000 -0.4108560000000  0.3625940000000 1.0   0.06
O      2 -0.2580180000000 -0.1234390000000 -0.3426530000000 1.0  -0.16
O      2 -0.2580180000000 -0.1234390000000  0.3426530000000 1.0  -0.16
O      2  0.7474750000000  0.3562870000000 -0.3548250000000 1.0  -0.16
O      2  0.7474750000000  0.3562870000000  0.3548250000000 1.0  -0.16
S      3 -0.6589360000000 -0.4368800000000 -0.2185090000000 1.0   0.05
S      3 -0.6589360000000 -0.4368800000000  0.2185090000000 1.0   0.05
S      3  0.2345810000000 -0.1456840000000  0.2397220000000 1.0  -0.05
S      3  0.2345810000000 -0.1456840000000 -0.2397220000000 1.0  -0.05
Fe     4 -0.4541200000000  0.0754480000000  0.3472520000000 1.0  -3.72
Fe     4 -0.4541200000000  0.0754480000000 -0.3472520000000 1.0  -3.72
Fe     4  0.0524860000000  0.3883260000000  0.3250780000000 1.0  -3.48
Fe     4  0.0524860000000  0.3883260000000 -0.3250780000000 1.0  -3.48
Fe     4  0.0525130000000 -0.0275960000000  0.3887820000000 1.0  -3.55
Fe     4  0.0525130000000 -0.0275960000000 -0.3887820000000 1.0  -3.55
END
