TITL LFSO-Li2FeSO-201025-090348-0a0a48 -0.0259 323.437869 -6.01039678E+003 12.0000 12.1797 15 (R3) n - 1
REM
REM Run started: Sun, 25 Oct 2020 11:52:57 +0000 in /lustre/scratch/uccabz1/launch_tmp/launcher_2020-10-25-09-03-47-295093
REM CASTEP 20.1 from code version af48c487+ pr-geom-scf-spinfix Tue Jun 2 15:39:59 2020 +0100
REM Functional Perdew Burke Ernzerhof Relativity Koelling-Harmon Dispersion off
REM Cut-off 340.0000 eV Grid scale 1.7500 Gmax 16.5316 1/A FBSC none
REM MP grid 3 3 3 Offset 0.000 0.000 0.000 No. kpts 6 Spacing 0.07
REM Total runtime: 10561.8 s
REM Overall efficiency: 96.125 %
REM
REM
REM
REM compiler GCC version 4.9.2
REM options -cpp -iprefix /lustre/shared/ucl/apps/gcc/4.9.2/bin/../lib/gcc/x86_64-unknown-linux-gnu/4.9.2/ -mtune=corei7 -march=x86-64 -g -Og
REM COMMAND_LINE
REM seed 66367389 380568747 470381970 508579562 -722984444 -1122076373 -340557719 1073638517 849674305 1338967700 149841344 -111477721
REM
REM S 3|1.8|5|6|7|30:31:32(qc=5)
REM O 2|1.5|12|13|15|20:21(qc=5)
REM Li 1|1.3|8|9|10|10U:20(qc=5)
REM Fe 3|2.2|2.0|1.0|8|9|10|40:41:32(qc=5)
REM Fe d:4.0 
REM
CELL 1.54180    6.86858    6.86858    6.86858   87.95714   87.95714   87.95714
LATT -1
SFAC Li O  S  Fe 
Li     1  0.5622360000000  0.0087650000000  0.2907250000000 1.0  -0.04
Li     1  0.2907250000000  0.5622360000000  0.0087650000000 1.0  -0.04
Li     1  0.0087650000000  0.2907250000000  0.5622360000000 1.0  -0.04
Li     1 -0.2143850000000  0.0921260000000  0.0103210000000 1.0   0.01
Li     1  0.0103210000000 -0.2143850000000  0.0921260000000 1.0   0.01
Li     1  0.0921260000000  0.0103210000000 -0.2143850000000 1.0   0.01
O      2  0.1609470000000 -0.2421270000000 -0.1379540000000 1.0   0.16
O      2 -0.1379540000000  0.1609470000000 -0.2421270000000 1.0   0.16
O      2 -0.2421270000000 -0.1379540000000  0.1609470000000 1.0   0.16
S      3 -0.2530460000000  0.3142980000000  0.3091410000000 1.0   0.09
S      3  0.3091410000000 -0.2530460000000  0.3142980000000 1.0   0.09
S      3  0.3142980000000  0.3091410000000 -0.2530460000000 1.0   0.09
Fe     4 -0.3610300000000 -0.3646840000000  0.2537660000000 1.0   3.78
Fe     4  0.2537660000000 -0.3610300000000 -0.3646840000000 1.0   3.78
Fe     4 -0.3646840000000  0.2537660000000 -0.3610300000000 1.0   3.78
END
