TITL LFSO-Li3FeS2O-201025-044406-a6db47 -0.0206 471.106634 -7.51994618E+003 13.0092 13.2772 21 (C2) n - 1
REM
REM Run started: Sun, 25 Oct 2020 11:55:49 +0000 in /scratch/scratch/uccabz1/launch_tmp/launcher_2020-10-25-04-44-04-769501
REM CASTEP 19.11| from code version Version unavailable
REM Functional Perdew Burke Ernzerhof Relativity Koelling-Harmon Dispersion off
REM Cut-off 340.0000 eV Grid scale 1.7500 Gmax 16.5316 1/A FBSC none
REM MP grid 2 2 3 Offset 0.000 0.000 0.000 No. kpts 5 Spacing 0.07
REM Total runtime: 28098.4 s
REM Overall efficiency: 75.75 %
REM
REM
REM
REM compiler GCC version 4.9.2
REM options -cpp -iprefix /scratch/UCL/applications/gcc/4.9.2/bin/../lib/gcc/x86_64-unknown-linux-gnu/4.9.2/ -mtune=corei7 -march=x86-64 -g -O2
REM COMMAND_LINE
REM seed 1683860555 -2100772187 1483730501 1931148701 112086720 986230152 -697229193 1908408462 163231722 257005810 -932609267 -899885386
REM
REM S 3|1.8|5|6|7|30:31:32(qc=5)
REM O 2|1.5|12|13|15|20:21(qc=5)
REM Li 1|1.3|8|9|10|10U:20(qc=5)
REM Fe 3|2.2|2.0|1.0|8|9|10|40:41:32(qc=5)
REM Fe d:4.0 
REM
CELL 1.54180    9.33879    9.33879    6.22000   81.54233   81.54233  115.39829
LATT -1
SFAC Li O  S  Fe 
Li     1  0.0461020000000  0.2337260000000 -0.3210890000000 1.0   0.01
Li     1 -0.2337260000000 -0.0461020000000  0.3210890000000 1.0   0.01
Li     1  0.1580590000000 -0.3917670000000 -0.3046440000000 1.0   0.00
Li     1  0.3917670000000 -0.1580590000000  0.3046440000000 1.0   0.00
Li     1 -0.2045250000000 -0.4592120000000  0.3137770000000 1.0   0.02
Li     1  0.4592120000000  0.2045250000000 -0.3137770000000 1.0   0.02
Li     1 -0.2209620000000  0.3121830000000 -0.3139230000000 1.0  -0.02
Li     1 -0.3121830000000  0.2209620000000  0.3139230000000 1.0  -0.02
Li     1 -0.4172310000000  0.4172310000000  0.0000000000000 1.0   0.02
O      2 -0.1700970000000  0.1334300000000 -0.2666120000000 1.0   0.37
O      2 -0.1334300000000  0.1700970000000  0.2666120000000 1.0   0.37
O      2 -0.3465980000000  0.3465980000000 -0.5000000000000 1.0  -0.03
S      3  0.4972610000000  0.1141420000000  0.0628930000000 1.0   0.14
S      3 -0.1141420000000 -0.4972610000000 -0.0628930000000 1.0   0.14
S      3 -0.3865430000000 -0.2352570000000  0.1238240000000 1.0   0.19
S      3  0.2352570000000  0.3865430000000 -0.1238240000000 1.0   0.19
S      3  0.1496060000000  0.5712480000000  0.3156670000000 1.0   0.12
S      3 -0.5712480000000 -0.1496060000000 -0.3156670000000 1.0   0.12
Fe     4 -0.3731230000000 -0.0104410000000 -0.1282410000000 1.0   3.80
Fe     4  0.0104410000000  0.3731230000000  0.1282410000000 1.0   3.80
Fe     4  0.3739370000000 -0.3739370000000  0.0000000000000 1.0   3.75
END
