TITL LFSO-Li2Fe4S4O-201025-000022-4d1025 -0.0071 220.853154 -5.50031955E+003 14.0117 14.3896 11 (P2) n - 1
REM
REM Run started: Sun, 25 Oct 2020 03:01:52 +0000 in /lustre/scratch/uccabz1/launch_tmp/launcher_2020-10-24-23-00-20-485467
REM CASTEP 20.1 from code version af48c487+ pr-geom-scf-spinfix Tue Jun 2 15:39:59 2020 +0100
REM Functional Perdew Burke Ernzerhof Relativity Koelling-Harmon Dispersion off
REM Cut-off 340.0000 eV Grid scale 1.7500 Gmax 16.5316 1/A FBSC none
REM MP grid 3 4 2 Offset 0.000 0.000 0.000 No. kpts 8 Spacing 0.07
REM Total runtime: 15128.5 s
REM Overall efficiency: 90.4167 %
REM
REM
REM
REM compiler GCC version 4.9.2
REM options -cpp -iprefix /lustre/shared/ucl/apps/gcc/4.9.2/bin/../lib/gcc/x86_64-unknown-linux-gnu/4.9.2/ -mtune=corei7 -march=x86-64 -g -Og
REM COMMAND_LINE
REM seed -491349738 207042672 515112683 -642338639 1658477616 -1514273574 -600665476 1126811812 -1838741076 -958591515 -1599490531 1896600381
REM
REM S 3|1.8|5|6|7|30:31:32(qc=5)
REM O 2|1.5|12|13|15|20:21(qc=5)
REM Li 1|1.3|8|9|10|10U:20(qc=5)
REM Fe 3|2.2|2.0|1.0|8|9|10|40:41:32(qc=5)
REM Fe d:4.0 
REM
CELL 1.54180    5.58979    4.59529    8.61153   93.21833   90.00000   90.00000
LATT -1
SFAC Li O  S  Fe 
Li     1 -0.5502970000000 -0.2273160000000  0.1372770000000 1.0  -0.00
Li     1 -0.5502970000000  0.2273160000000 -0.1372770000000 1.0  -0.00
O      2  0.2837700000000  0.0000000000000  0.5000000000000 1.0   0.10
S      3 -0.2069040000000  0.2854260000000 -0.3526410000000 1.0  -0.03
S      3 -0.2069040000000 -0.2854260000000  0.3526410000000 1.0  -0.03
S      3  0.3291040000000  0.2755790000000  0.1718120000000 1.0  -0.00
S      3  0.3291040000000 -0.2755790000000 -0.1718120000000 1.0  -0.00
Fe     4  0.0474940000000 -0.2376820000000 -0.3775600000000 1.0   3.74
Fe     4  0.0474940000000  0.2376820000000  0.3775600000000 1.0   3.74
Fe     4  0.5336650000000  0.2670920000000  0.4107640000000 1.0   3.26
Fe     4  0.5336650000000 -0.2670920000000 -0.4107640000000 1.0   3.26
END
