TITL LFSO-Li2Fe4S4O-201022-183626-5784d8 0.1206 516.556887 -5.49833801E+003 15.9998 16.3059 11 (R3) n - 1
REM
REM Run started: Sat, 24 Oct 2020 20:11:17 +0100 in /lustre/scratch/uccabz1/launch_tmp/launcher_2020-10-24-17-35-52-429846
REM CASTEP 20.1 from code version af48c487+ pr-geom-scf-spinfix Tue Jun 2 15:39:59 2020 +0100
REM Functional Perdew Burke Ernzerhof Relativity Koelling-Harmon Dispersion off
REM Cut-off 340.0000 eV Grid scale 1.7500 Gmax 16.5316 1/A FBSC none
REM MP grid 3 3 3 Offset 0.000 0.000 0.000 No. kpts 6 Spacing 0.07
REM Total runtime: 159043 s
REM Overall efficiency: 97.7857 %
REM
REM
REM
REM compiler GCC version 4.9.2
REM options -cpp -iprefix /lustre/shared/ucl/apps/gcc/4.9.2/bin/../lib/gcc/x86_64-unknown-linux-gnu/4.9.2/ -mtune=corei7 -march=x86-64 -g -Og
REM COMMAND_LINE
REM seed -1618162472 -1595755864 599530902 711947629 43510680 -524600761 -513979100 475834342 -909341705 1025597723 1067412208 -1680899740
REM
REM S 3|1.8|5|6|7|30:31:32(qc=5)
REM O 2|1.5|12|13|15|20:21(qc=5)
REM Li 1|1.3|8|9|10|10U:20(qc=5)
REM Fe 3|2.2|2.0|1.0|8|9|10|40:41:32(qc=5)
REM Fe d:4.0 
REM
CELL 1.54180   13.80753   13.80753   13.80753   28.11955   28.11955   28.11955
LATT -1
SFAC Li O  S  Fe 
Li     1  0.1322870000000  0.1322870000000  0.1322870000000 1.0   0.01
Li     1  0.4942220000000  0.4942220000000  0.4942220000000 1.0  -0.13
O      2 -0.4604140000000 -0.4604140000000 -0.4604140000000 1.0   0.21
S      3 -0.2216830000000  0.1446740000000  0.4889480000000 1.0   0.19
S      3  0.4889480000000 -0.2216830000000  0.1446740000000 1.0   0.19
S      3  0.1446740000000  0.4889480000000 -0.2216830000000 1.0   0.19
S      3 -0.1041990000000 -0.1041990000000 -0.1041990000000 1.0   0.06
Fe     4  0.7537530000000  0.1917980000000 -0.3597760000000 1.0   3.81
Fe     4 -0.3597760000000  0.7537530000000  0.1917980000000 1.0   3.81
Fe     4  0.1917980000000 -0.3597760000000  0.7537530000000 1.0   3.81
Fe     4  0.4396940000000  0.4396940000000  0.4396940000000 1.0   3.86
END
