TITL LFSO-Li2FeSO-201025-142724-6809ad -0.0316 360.893078 -8.01523110E+003 16.0000 16.1746 20 (C2) n - 1
REM
REM Run started: Sun, 25 Oct 2020 22:13:29 +0000 in /scratch/scratch/uccabz1/launch_tmp/launcher_2020-10-25-14-27-22-984297
REM CASTEP 19.11| from code version Version unavailable
REM Functional Perdew Burke Ernzerhof Relativity Koelling-Harmon Dispersion off
REM Cut-off 340.0000 eV Grid scale 1.7500 Gmax 16.5316 1/A FBSC none
REM MP grid 4 4 2 Offset 0.000 0.000 0.000 No. kpts 10 Spacing 0.07
REM Total runtime: 28183.3 s
REM Overall efficiency: 70.6364 %
REM
REM
REM
REM compiler GCC version 4.9.2
REM options -cpp -iprefix /scratch/UCL/applications/gcc/4.9.2/bin/../lib/gcc/x86_64-unknown-linux-gnu/4.9.2/ -mtune=corei7 -march=x86-64 -g -O2
REM COMMAND_LINE
REM seed 666080875 23028486 -806136728 -1630211660 1955827854 834628260 1232826422 -1103173901 794399012 -566240282 -1940641194 186390542
REM
REM S 3|1.8|5|6|7|30:31:32(qc=5)
REM O 2|1.5|12|13|15|20:21(qc=5)
REM Li 1|1.3|8|9|10|10U:20(qc=5)
REM Fe 3|2.2|2.0|1.0|8|9|10|40:41:32(qc=5)
REM Fe d:4.0 
REM
CELL 1.54180    6.10789    6.10789   15.63194  117.72072  117.72072  105.32824
LATT -1
SFAC Li O  S  Fe 
Li     1  0.4918660000000 -0.0434720000000  0.3592640000000 1.0  -0.02
Li     1  0.0434720000000 -0.4918660000000 -0.3592640000000 1.0  -0.02
Li     1  0.0923080000000  0.1350490000000  0.2077300000000 1.0  -0.05
Li     1 -0.1350490000000 -0.0923080000000 -0.2077300000000 1.0  -0.05
Li     1  0.6493580000000  0.5417730000000  0.4689420000000 1.0  -0.00
Li     1 -0.5417730000000 -0.6493580000000 -0.4689420000000 1.0  -0.00
Li     1  0.2929030000000 -0.4429290000000  0.0437580000000 1.0  -0.00
Li     1  0.4429290000000 -0.2929030000000 -0.0437580000000 1.0  -0.00
O      2 -0.1251320000000 -0.2771510000000 -0.3413850000000 1.0   0.13
O      2  0.2771510000000  0.1251320000000  0.3413850000000 1.0   0.13
O      2  0.0563130000000  0.3329170000000 -0.1341710000000 1.0   0.17
O      2 -0.3329170000000 -0.0563130000000  0.1341710000000 1.0   0.17
S      3 -0.4695420000000 -0.4292910000000 -0.1954870000000 1.0   0.05
S      3  0.4292910000000  0.4695420000000  0.1954870000000 1.0   0.05
S      3  0.6104430000000  0.0171590000000 -0.4540160000000 1.0   0.13
S      3 -0.0171590000000 -0.6104430000000  0.4540160000000 1.0   0.13
Fe     4 -0.2881460000000  0.2924850000000  0.2574540000000 1.0   3.77
Fe     4 -0.2924850000000  0.2881460000000 -0.2574540000000 1.0   3.77
Fe     4 -0.1177500000000 -0.0799500000000  0.2859600000000 1.0   3.81
Fe     4  0.0799500000000  0.1177500000000 -0.2859600000000 1.0   3.81
END
