TITL LFSO-Li5FeSO3-201027-014730-83523b -0.0581 169.578122 -3.47796000E+003 3.99998 4.10340 10 (Pmm2) n - 1
REM
REM Run started: Tue, 27 Oct 2020 02:04:16 +0000 in /scratch/scratch/uccabz1/launch_tmp/launcher_2020-10-27-01-47-29-079082
REM CASTEP 19.11| from code version Version unavailable
REM Functional Perdew Burke Ernzerhof Relativity Koelling-Harmon Dispersion off
REM Cut-off 340.0000 eV Grid scale 1.7500 Gmax 16.5316 1/A FBSC none
REM MP grid 3 4 2 Offset 0.000 0.000 0.000 No. kpts 4 Spacing 0.07
REM Total runtime: 1072.97 s
REM Overall efficiency: 71.6667 %
REM
REM
REM
REM compiler GCC version 4.9.2
REM options -cpp -iprefix /scratch/UCL/applications/gcc/4.9.2/bin/../lib/gcc/x86_64-unknown-linux-gnu/4.9.2/ -mtune=corei7 -march=x86-64 -g -O2
REM COMMAND_LINE
REM seed -912033750 -1289706211 -351365012 1631248654 -1571515322 305436534 627244995 1974063837 699146125 -660192820 994531126 -833169206
REM
REM S 3|1.8|5|6|7|30:31:32(qc=5)
REM O 2|1.5|12|13|15|20:21(qc=5)
REM Li 1|1.3|8|9|10|10U:20(qc=5)
REM Fe 3|2.2|2.0|1.0|8|9|10|40:41:32(qc=5)
REM Fe d:4.0 
REM
CELL 1.54180    6.09792    3.73701    7.44155   90.00000   90.00000   90.00000
LATT -1
SFAC Li O  S  Fe 
Li     1 -0.2335540000000  0.4831700000000 -0.1784230000000 1.0  -0.02
Li     1  0.2335540000000  0.4831700000000  0.1784230000000 1.0  -0.02
Li     1  0.2335540000000  0.4831700000000 -0.1784230000000 1.0  -0.02
Li     1 -0.2335540000000  0.4831700000000  0.1784230000000 1.0  -0.02
Li     1 -0.0000000000000 -0.0597260000000  0.5000000000000 1.0   0.03
O      2 -0.0000000000000 -0.0978900000000  0.2591250000000 1.0   0.08
O      2  0.0000000000000 -0.0978900000000 -0.2591250000000 1.0   0.08
O      2 -0.0000000000000 -0.5630420000000  0.0000000000000 1.0   0.09
S      3 -0.5000000000000 -0.0500490000000  0.0000000000000 1.0   0.21
Fe     4 -0.0000000000000 -0.0571980000000  0.0000000000000 1.0   3.59
END
