TITL LFSO-Li6FeSO3-201028-050642-f62150 0.0279 142.680485 -3.67915507E+003 4.00000 4.09172 11 (Cm) n - 1
REM
REM Run started: Wed, 28 Oct 2020 05:47:32 +0000 in /lustre/scratch/uccabz1/launch_tmp/launcher_2020-10-28-05-06-40-478256
REM CASTEP 20.1 from code version af48c487+ pr-geom-scf-spinfix Tue Jun 2 15:39:59 2020 +0100
REM Functional Perdew Burke Ernzerhof Relativity Koelling-Harmon Dispersion off
REM Cut-off 340.0000 eV Grid scale 1.7500 Gmax 16.5316 1/A FBSC none
REM MP grid 3 4 5 Offset 0.000 0.000 0.000 No. kpts 30 Spacing 0.07
REM Total runtime: 3174.03 s
REM Overall efficiency: 82 %
REM
REM
REM
REM compiler GCC version 4.9.2
REM options -cpp -iprefix /lustre/shared/ucl/apps/gcc/4.9.2/bin/../lib/gcc/x86_64-unknown-linux-gnu/4.9.2/ -mtune=corei7 -march=x86-64 -g -Og
REM COMMAND_LINE
REM seed 523316537 -37400850 952872862 1728294496 1944896551 596829210 1484367229 225669553 -2083324224 327879902 -716159233 -1163068351
REM
REM S 3|1.8|5|6|7|30:31:32(qc=5)
REM O 2|1.5|12|13|15|20:21(qc=5)
REM Li 1|1.3|8|9|10|10U:20(qc=5)
REM Fe 3|2.2|2.0|1.0|8|9|10|40:41:32(qc=5)
REM Fe d:4.0 
REM
CELL 1.54180    6.48172    6.48172    5.69695  131.49287  114.81875   92.79479
LATT -1
SFAC Li O  S  Fe 
Li     1  0.4009770000000 -0.2243480000000  0.4364550000000 1.0  -0.00
Li     1 -0.3391970000000  0.0354780000000  0.4364550000000 1.0  -0.00
Li     1  0.1796750000000  0.3054190000000 -0.1946070000000 1.0   0.00
Li     1 -0.5000260000000 -0.3742820000000 -0.1946070000000 1.0   0.00
Li     1 -0.0116350000000 -0.2446160000000  0.0385370000000 1.0  -0.04
Li     1  0.2831530000000  0.0501720000000  0.0385370000000 1.0  -0.04
O      2  0.2564460000000  0.4155520000000  0.2752720000000 1.0   0.08
O      2 -0.1402800000000  0.0188260000000  0.2752720000000 1.0   0.08
O      2  0.2686890000000 -0.2768690000000 -0.0081800000000 1.0   0.04
S      3 -0.3802940000000  0.3350260000000 -0.0452690000000 1.0   0.05
Fe     4 -0.0174020000000 -0.6582560000000 -0.6756580000000 1.0   3.82
END
