TITL LFSO-Li4Fe3S4O-201028-233216-1b6dce -0.0626 505.177828 -1.00787838E+004 -24.0000 24.3574 24 (Cc) n - 1
REM
REM Run started: Thu, 29 Oct 2020 11:52:44 +0000 in /lustre/scratch/uccabz1/launch_tmp/launcher_2020-10-28-23-32-14-297867
REM CASTEP 20.1 from code version af48c487+ pr-geom-scf-spinfix Tue Jun 2 15:39:59 2020 +0100
REM Functional Perdew Burke Ernzerhof Relativity Koelling-Harmon Dispersion off
REM Cut-off 340.0000 eV Grid scale 1.7500 Gmax 16.5316 1/A FBSC none
REM MP grid 3 3 2 Offset 0.000 0.000 0.000 No. kpts 9 Spacing 0.07
REM Total runtime: 48079.2 s
REM Overall efficiency: 77.3333 %
REM
REM
REM
REM compiler GCC version 4.9.2
REM options -cpp -iprefix /lustre/shared/ucl/apps/gcc/4.9.2/bin/../lib/gcc/x86_64-unknown-linux-gnu/4.9.2/ -mtune=corei7 -march=x86-64 -g -Og
REM COMMAND_LINE
REM seed 406129216 1479900504 -407390140 -160389293 2056055503 1139122827 1827222854 -1643874760 -1146703313 13936307 1608231134 345439583
REM
REM S 3|1.8|5|6|7|30:31:32(qc=5)
REM O 2|1.5|12|13|15|20:21(qc=5)
REM Li 1|1.3|8|9|10|10U:20(qc=5)
REM Fe 3|2.2|2.0|1.0|8|9|10|40:41:32(qc=5)
REM Fe d:4.0 
REM
CELL 1.54180    7.66126    7.00858   10.23510   97.02379  111.97883   90.00000
LATT -1
SFAC Li O  S  Fe 
Li     1  0.4455080000000  0.4904960000000  0.0309470000000 1.0   0.00
Li     1 -0.4145610000000 -0.0095040000000  0.0309470000000 1.0   0.00
Li     1  0.0287910000000 -0.0392350000000 -0.7221580000000 1.0   0.03
Li     1  0.2490510000000  0.4607650000000 -0.7221580000000 1.0   0.03
Li     1 -0.5561180000000 -0.2844310000000 -0.2648700000000 1.0   0.01
Li     1  0.2912470000000  0.2155690000000 -0.2648700000000 1.0   0.01
Li     1 -0.2407400000000  0.3900030000000 -0.3527970000000 1.0   0.06
Li     1 -0.1120580000000 -0.1099970000000 -0.3527970000000 1.0   0.06
O      2 -0.1354100000000  0.6065770000000  0.5693120000000 1.0  -0.18
O      2 -0.2952780000000  0.1065770000000  0.5693120000000 1.0  -0.18
S      3 -0.1023550000000  0.0571540000000  0.0318160000000 1.0  -0.12
S      3  0.1341710000000 -0.4428460000000  0.0318160000000 1.0  -0.12
S      3 -0.4824120000000  0.3239760000000  0.2379860000000 1.0  -0.14
S      3 -0.2796020000000 -0.1760240000000  0.2379860000000 1.0  -0.14
S      3 -0.4379170000000  0.4336150000000 -0.1700490000000 1.0  -0.09
S      3  0.2678690000000 -0.0663850000000 -0.1700490000000 1.0  -0.09
S      3  0.3211280000000 -0.2766760000000 -0.5232680000000 1.0  -0.11
S      3  0.1556040000000  0.2233240000000 -0.5232680000000 1.0  -0.11
Fe     4 -0.1384190000000  0.3666840000000 -0.0297000000000 1.0  -3.82
Fe     4  0.1087190000000 -0.1333160000000 -0.0297000000000 1.0  -3.82
Fe     4 -0.3036190000000  0.1058240000000  0.3776300000000 1.0  -3.80
Fe     4 -0.3187500000000 -0.3941760000000  0.3776300000000 1.0  -3.80
Fe     4 -0.5615300000000  0.0475280000000 -0.4752550000000 1.0  -3.84
Fe     4  0.0862750000000 -0.4524720000000 -0.4752550000000 1.0  -3.84
END
