TITL LFSO-Li2Fe3S3O-201025-091622-ebcfa9 0.0331 181.218449 -4.33529185E+003 12.0000 12.1220 9 (P2) n - 1
REM
REM Run started: Sun, 25 Oct 2020 11:02:36 +0000 in /scratch/scratch/uccabz1/launch_tmp/launcher_2020-10-25-09-16-21-278677
REM CASTEP 19.11| from code version Version unavailable
REM Functional Perdew Burke Ernzerhof Relativity Koelling-Harmon Dispersion off
REM Cut-off 340.0000 eV Grid scale 1.7500 Gmax 16.5316 1/A FBSC none
REM MP grid 4 4 2 Offset 0.000 0.000 0.000 No. kpts 8 Spacing 0.07
REM Total runtime: 6487.6 s
REM Overall efficiency: 81.6667 %
REM
REM
REM
REM compiler GCC version 4.9.2
REM options -cpp -iprefix /scratch/UCL/applications/gcc/4.9.2/bin/../lib/gcc/x86_64-unknown-linux-gnu/4.9.2/ -mtune=corei7 -march=x86-64 -g -O2
REM COMMAND_LINE
REM seed -1830473908 1556191553 1367529749 -493514027 -358395831 -429037176 -1558761297 -574499659 668116195 264403653 -1303067551 -1357301288
REM
REM S 3|1.8|5|6|7|30:31:32(qc=5)
REM O 2|1.5|12|13|15|20:21(qc=5)
REM Li 1|1.3|8|9|10|10U:20(qc=5)
REM Fe 3|2.2|2.0|1.0|8|9|10|40:41:32(qc=5)
REM Fe d:4.0 
REM
CELL 1.54180    4.02350    3.98890   12.02876  110.16657   90.00000   90.00000
LATT -1
SFAC Li O  S  Fe 
Li     1  0.0548720000000 -0.1679950000000  0.3362080000000 1.0  -0.06
Li     1  0.0548720000000  0.1679950000000 -0.3362080000000 1.0  -0.06
O      2  0.0791020000000  0.0000000000000  0.5000000000000 1.0   0.12
S      3  0.1391160000000  0.2441400000000  0.2502140000000 1.0   0.10
S      3  0.1391160000000 -0.2441400000000 -0.2502140000000 1.0   0.10
S      3 -0.4121240000000  0.5000000000000  0.0000000000000 1.0   0.12
Fe     4 -0.3558820000000 -0.1278470000000 -0.1282240000000 1.0   3.91
Fe     4 -0.3558820000000  0.1278470000000  0.1282240000000 1.0   3.91
Fe     4  0.1052090000000 -0.5000000000000 -0.5000000000000 1.0   3.86
END
