TITL LFSO-Li5FeSO3-201026-234943-c9addb -0.0326 107.366977 -3.47894901E+003 3.74913 3.93296 10 (C2/m) n - 1
REM
REM Run started: Tue, 27 Oct 2020 00:40:07 +0000 in /lustre/scratch/uccabz1/launch_tmp/launcher_2020-10-26-23-49-42-307084
REM CASTEP 20.1 from code version af48c487+ pr-geom-scf-spinfix Tue Jun 2 15:39:59 2020 +0100
REM Functional Perdew Burke Ernzerhof Relativity Koelling-Harmon Dispersion off
REM Cut-off 340.0000 eV Grid scale 1.7500 Gmax 16.5316 1/A FBSC none
REM MP grid 4 6 2 Offset 0.000 0.000 0.000 No. kpts 24 Spacing 0.07
REM Total runtime: 3341.33 s
REM Overall efficiency: 91 %
REM
REM
REM
REM compiler GCC version 4.9.2
REM options -cpp -iprefix /lustre/shared/ucl/apps/gcc/4.9.2/bin/../lib/gcc/x86_64-unknown-linux-gnu/4.9.2/ -mtune=corei7 -march=x86-64 -g -Og
REM COMMAND_LINE
REM seed 182669655 49472912 103548126 1453149643 -402345817 -91685948 650914387 1852553498 -1495749338 -192367308 2129444897 -171960565
REM
REM S 3|1.8|5|6|7|30:31:32(qc=5)
REM O 2|1.5|12|13|15|20:21(qc=5)
REM Li 1|1.3|8|9|10|10U:20(qc=5)
REM Fe 3|2.2|2.0|1.0|8|9|10|40:41:32(qc=5)
REM Fe d:4.0 
REM
CELL 1.54180    5.55270    3.74928    7.68538   87.89150   90.00000  137.77413
LATT -1
SFAC Li O  S  Fe 
Li     1  0.4506410000000  0.2988770000000  0.2906620000000 1.0  -0.02
Li     1  0.1517640000000 -0.2988770000000 -0.2906620000000 1.0  -0.02
Li     1 -0.4506410000000 -0.2988770000000 -0.2906620000000 1.0  -0.02
Li     1 -0.1517640000000  0.2988770000000  0.2906620000000 1.0  -0.02
Li     1  0.0000000000000  0.0000000000000 -0.5000000000000 1.0   0.01
O      2  0.0306500000000  0.0613000000000 -0.2474640000000 1.0   0.06
O      2 -0.0306500000000 -0.0613000000000  0.2474640000000 1.0   0.06
O      2  0.5000000000000  0.0000000000000 -0.5000000000000 1.0  -0.04
S      3  0.5000000000000  0.0000000000000  0.0000000000000 1.0   0.08
Fe     4  0.0000000000000  0.0000000000000  0.0000000000000 1.0   3.66
END
