TITL LFSO-Li5FeS2O2-201025-190113-18ea66 0.0482 163.393883 -3.33972146E+003 4.20283 4.34636 10 (P3) n - 1
REM
REM Run started: Sun, 25 Oct 2020 19:40:48 +0000 in /lustre/scratch/uccabz1/launch_tmp/launcher_2020-10-25-19-01-11-995130
REM CASTEP 20.1 from code version af48c487+ pr-geom-scf-spinfix Tue Jun 2 15:39:59 2020 +0100
REM Functional Perdew Burke Ernzerhof Relativity Koelling-Harmon Dispersion off
REM Cut-off 340.0000 eV Grid scale 1.7500 Gmax 16.5316 1/A FBSC none
REM MP grid 4 4 2 Offset 0.000 0.000 0.000 No. kpts 16 Spacing 0.07
REM Total runtime: 2757.51 s
REM Overall efficiency: 85.5 %
REM
REM
REM
REM compiler GCC version 4.9.2
REM options -cpp -iprefix /lustre/shared/ucl/apps/gcc/4.9.2/bin/../lib/gcc/x86_64-unknown-linux-gnu/4.9.2/ -mtune=corei7 -march=x86-64 -g -Og
REM COMMAND_LINE
REM seed 1483541163 215781687 650469972 1028511108 -609152960 1787892932 1398529709 1832740697 245381862 -1348581814 -1479865228 537820288
REM
REM S 3|1.8|5|6|7|30:31:32(qc=5)
REM O 2|1.5|12|13|15|20:21(qc=5)
REM Li 1|1.3|8|9|10|10U:20(qc=5)
REM Fe 3|2.2|2.0|1.0|8|9|10|40:41:32(qc=5)
REM Fe d:4.0 
REM
CELL 1.54180    4.52336    4.52336    9.22109   90.00000   90.00000  120.00000
LATT -1
SFAC Li O  S  Fe 
Li     1  0.0414990000000  0.3643070000000 -0.2643220000000 1.0  -0.03
Li     1 -0.3643070000000 -0.3228080000000 -0.2643220000000 1.0  -0.03
Li     1  0.3228080000000 -0.0414990000000 -0.2643220000000 1.0  -0.03
Li     1  0.0000000000000 -0.0000000000000  0.2636020000000 1.0  -0.05
Li     1 -0.3333330000000  0.3333330000000 -0.5551840000000 1.0   0.02
O      2 -0.3333330000000  0.3333330000000  0.2469960000000 1.0   0.16
O      2  0.3333330000000 -0.3333330000000  0.5968310000000 1.0   0.13
S      3  0.0000000000000 -0.0000000000000 -0.4432140000000 1.0   0.12
S      3  0.3333330000000 -0.3333330000000 -0.0465790000000 1.0   0.02
Fe     4 -0.3333330000000  0.3333330000000  0.0459220000000 1.0   3.90
END
