TITL LFSO-Li4Fe3S3O2-201029-134923-46092d -0.0775 181.178211 -5.17410163E+003 11.9883 12.1138 12 (P-1) n - 1
REM
REM Run started: Thu, 29 Oct 2020 18:50:01 +0000 in /lustre/scratch/uccabz1/launch_tmp/launcher_2020-10-29-13-49-21-488304
REM CASTEP 20.1 from code version af48c487+ pr-geom-scf-spinfix Tue Jun 2 15:39:59 2020 +0100
REM Functional Perdew Burke Ernzerhof Relativity Koelling-Harmon Dispersion off
REM Cut-off 340.0000 eV Grid scale 1.7500 Gmax 16.5316 1/A FBSC none
REM MP grid 5 6 2 Offset 0.000 0.000 0.000 No. kpts 30 Spacing 0.07
REM Total runtime: 18372.2 s
REM Overall efficiency: 92.8 %
REM
REM
REM
REM compiler GCC version 4.9.2
REM options -cpp -iprefix /lustre/shared/ucl/apps/gcc/4.9.2/bin/../lib/gcc/x86_64-unknown-linux-gnu/4.9.2/ -mtune=corei7 -march=x86-64 -g -Og
REM COMMAND_LINE
REM seed 79514222 -857433502 -1192402133 -871924091 -371195312 -1648370068 -1214421763 215928312 -162577027 1352090823 1501431464 -1680829600
REM
REM S 3|1.8|5|6|7|30:31:32(qc=5)
REM O 2|1.5|12|13|15|20:21(qc=5)
REM Li 1|1.3|8|9|10|10U:20(qc=5)
REM Fe 3|2.2|2.0|1.0|8|9|10|40:41:32(qc=5)
REM Fe d:4.0 
REM
CELL 1.54180    5.38607    3.99984   13.56967   71.58098   76.34015   40.78554
LATT -1
SFAC Li O  S  Fe 
Li     1 -0.3913140000000  0.5719910000000  0.3150630000000 1.0  -0.06
Li     1  0.3913140000000 -0.5719910000000 -0.3150630000000 1.0  -0.06
Li     1  0.0032930000000 -0.3954010000000 -0.1052190000000 1.0  -0.08
Li     1 -0.0032930000000  0.3954010000000  0.1052190000000 1.0  -0.08
O      2 -0.5007730000000  0.1751660000000 -0.1705640000000 1.0   0.13
O      2  0.5007730000000 -0.1751660000000  0.1705640000000 1.0   0.13
S      3 -0.0039230000000 -0.3749210000000  0.3642240000000 1.0   0.16
S      3  0.0039230000000  0.3749210000000 -0.3642240000000 1.0   0.16
S      3  0.0000000000000  0.0000000000000  0.0000000000000 1.0   0.15
Fe     4  0.4881290000000  0.3551510000000  0.1538520000000 1.0   3.90
Fe     4 -0.4881290000000 -0.3551510000000 -0.1538520000000 1.0   3.90
Fe     4  0.5000000000000  0.0000000000000  0.5000000000000 1.0   3.76
END
