TITL LFSO-Li4Fe3S3O2-201030-055950-7f5207 -0.2627 689.551767 -1.03406689E+004 23.9955 24.7135 24 (P3) n - 1
REM
REM Run started: Fri, 30 Oct 2020 13:48:31 +0000 in /lustre/scratch/uccabz1/launch_tmp/launcher_2020-10-30-11-04-14-347493
REM CASTEP 20.1 from code version af48c487+ pr-geom-scf-spinfix Tue Jun 2 15:39:59 2020 +0100
REM Functional Perdew Burke Ernzerhof Relativity Koelling-Harmon Dispersion off
REM Cut-off 340.0000 eV Grid scale 1.7500 Gmax 16.5316 1/A FBSC none
REM MP grid 3 2 2 Offset 0.000 0.000 0.000 No. kpts 6 Spacing 0.07
REM Total runtime: 34086.4 s
REM Overall efficiency: 85.6667 %
REM
REM
REM
REM compiler GCC version 4.9.2
REM options -cpp -iprefix /scratch/UCL/applications/gcc/4.9.2/bin/../lib/gcc/x86_64-unknown-linux-gnu/4.9.2/ -mtune=corei7 -march=x86-64 -g -O2
REM COMMAND_LINE
REM seed -1002489282 1058280799 1907779149 199564613 -270355306 645689442 -171878412 -7208099 -1469908504 -801836810 -455618283 203467169
REM
REM S 3|1.8|5|6|7|30:31:32(qc=5)
REM O 2|1.5|12|13|15|20:21(qc=5)
REM Li 1|1.3|8|9|10|10U:20(qc=5)
REM Fe 3|2.2|2.0|1.0|8|9|10|40:41:32(qc=5)
REM Fe d:4.0 
REM
CELL 1.54180    7.01358   10.65487   10.65487  120.00000   90.00000   90.00000
LATT -1
SFAC Li O  S  Fe 
Li     1  0.0838880000000 -0.1644500000000 -0.5889520000000 1.0  -0.04
Li     1  0.0838880000000  0.5889520000000  0.4245010000000 1.0  -0.04
Li     1  0.0838880000000 -0.4245010000000  0.1644500000000 1.0  -0.04
Li     1  0.1867750000000 -0.1758990000000  0.1446980000000 1.0   0.01
Li     1  0.1867750000000 -0.1446980000000 -0.3205980000000 1.0   0.01
Li     1  0.1867750000000  0.3205980000000  0.1758990000000 1.0   0.01
Li     1  0.0262710000000  0.0000000000000 -0.0000000000000 1.0  -0.08
Li     1 -0.5246690000000  0.0000000000000 -0.0000000000000 1.0  -0.01
O      2 -0.0086510000000 -0.2453650000000  0.2092640000000 1.0   0.28
O      2 -0.0086510000000 -0.2092640000000 -0.4546290000000 1.0   0.28
O      2 -0.0086510000000  0.4546290000000  0.2453650000000 1.0   0.28
O      2  0.2655540000000 -0.3333330000000  0.3333330000000 1.0   1.05
S      3  0.0371120000000 -0.2549880000000 -0.1881990000000 1.0   0.15
S      3  0.0371120000000  0.1881990000000 -0.0667880000000 1.0   0.15
S      3  0.0371120000000  0.0667880000000  0.2549880000000 1.0   0.15
S      3  0.5148160000000 -0.0614650000000 -0.2564520000000 1.0   0.09
S      3  0.5148160000000  0.2564520000000  0.1949870000000 1.0   0.09
S      3  0.5148160000000 -0.1949870000000  0.0614650000000 1.0   0.09
Fe     4 -0.1932090000000  0.3245610000000  0.1329880000000 1.0   3.69
Fe     4 -0.1932090000000 -0.1329880000000  0.1915730000000 1.0   3.69
Fe     4 -0.1932090000000 -0.1915730000000 -0.3245610000000 1.0   3.69
Fe     4 -0.2470440000000  0.1040660000000 -0.1610490000000 1.0   3.49
Fe     4 -0.2470440000000  0.1610490000000  0.2651140000000 1.0   3.49
Fe     4 -0.2470440000000 -0.2651140000000 -0.1040660000000 1.0   3.49
END
