TITL LFSO-Li5FeS2O2-201026-104923-95f84b 0.0250 432.503401 -6.68877780E+003 -8.00000 8.34354 20 (P3) n - 1
REM
REM Run started: Mon, 26 Oct 2020 13:44:59 +0000 in /lustre/scratch/uccabz1/launch_tmp/launcher_2020-10-26-10-49-21-913270
REM CASTEP 20.1 from code version af48c487+ pr-geom-scf-spinfix Tue Jun 2 15:39:59 2020 +0100
REM Functional Perdew Burke Ernzerhof Relativity Koelling-Harmon Dispersion off
REM Cut-off 340.0000 eV Grid scale 1.7500 Gmax 16.5316 1/A FBSC none
REM MP grid 2 2 3 Offset 0.000 0.000 0.000 No. kpts 6 Spacing 0.07
REM Total runtime: 11440.3 s
REM Overall efficiency: 78.6667 %
REM
REM
REM
REM compiler GCC version 4.9.2
REM options -cpp -iprefix /lustre/shared/ucl/apps/gcc/4.9.2/bin/../lib/gcc/x86_64-unknown-linux-gnu/4.9.2/ -mtune=corei7 -march=x86-64 -g -Og
REM COMMAND_LINE
REM seed 771550138 -177662726 2034384682 15091506 -264169967 1397836801 -832057962 -229249322 1234100608 -955754888 2134272451 -2069366963
REM
REM S 3|1.8|5|6|7|30:31:32(qc=5)
REM O 2|1.5|12|13|15|20:21(qc=5)
REM Li 1|1.3|8|9|10|10U:20(qc=5)
REM Fe 3|2.2|2.0|1.0|8|9|10|40:41:32(qc=5)
REM Fe d:4.0 
REM
CELL 1.54180    8.26812    8.26812    7.30543   90.00000   90.00000  120.00000
LATT -1
SFAC Li O  S  Fe 
Li     1 -0.2195280000000  0.1626760000000 -0.1376160000000 1.0   0.04
Li     1 -0.1626760000000 -0.3822040000000 -0.1376160000000 1.0   0.04
Li     1  0.3822040000000  0.2195280000000 -0.1376160000000 1.0   0.04
Li     1  0.1821090000000 -0.1984930000000 -0.1389160000000 1.0  -0.01
Li     1  0.1984930000000  0.3806030000000 -0.1389160000000 1.0  -0.01
Li     1 -0.3806030000000 -0.1821090000000 -0.1389160000000 1.0  -0.01
Li     1  0.2925030000000  0.4025330000000 -0.4872430000000 1.0   0.01
Li     1 -0.4025330000000 -0.1100310000000 -0.4872430000000 1.0   0.01
Li     1  0.1100310000000 -0.2925030000000 -0.4872430000000 1.0   0.01
Li     1  0.3333330000000 -0.3333330000000  0.1879090000000 1.0  -0.04
O      2  0.0008800000000 -0.2292390000000  0.6935490000000 1.0  -0.12
O      2  0.2292390000000  0.2301190000000  0.6935490000000 1.0  -0.12
O      2 -0.2301190000000 -0.0008800000000  0.6935490000000 1.0  -0.12
O      2  0.3333330000000 -0.3333330000000  0.4422830000000 1.0  -0.00
S      3 -0.4653210000000 -0.4815130000000  0.0480880000000 1.0  -0.08
S      3  0.4815130000000  0.0161920000000  0.0480880000000 1.0  -0.08
S      3 -0.0161920000000  0.4653210000000  0.0480880000000 1.0  -0.08
S      3  0.3333330000000 -0.3333330000000 -0.3180230000000 1.0  -0.01
Fe     4  0.0000000000000 -0.0000000000000  0.6751830000000 1.0  -3.72
Fe     4 -0.3333330000000  0.3333330000000  0.1255760000000 1.0  -3.77
END
