TITL LFSO-Li2Fe3S2O2-201024-073213-c7912a 0.0360 300.627355 -8.93950475E+003 20.0000 20.4479 18 (P21/c) n - 1
REM
REM Run started: Sat, 24 Oct 2020 10:21:24 +0100 in /lustre/scratch/uccabz1/launch_tmp/launcher_2020-10-24-06-32-12-292140
REM CASTEP 20.1 from code version af48c487+ pr-geom-scf-spinfix Tue Jun 2 15:39:59 2020 +0100
REM Functional Perdew Burke Ernzerhof Relativity Koelling-Harmon Dispersion off
REM Cut-off 340.0000 eV Grid scale 1.7500 Gmax 16.5316 1/A FBSC none
REM MP grid 2 3 3 Offset 0.000 0.000 0.000 No. kpts 5 Spacing 0.07
REM Total runtime: 11360.6 s
REM Overall efficiency: 76.5833 %
REM
REM
REM
REM compiler GCC version 4.9.2
REM options -cpp -iprefix /lustre/shared/ucl/apps/gcc/4.9.2/bin/../lib/gcc/x86_64-unknown-linux-gnu/4.9.2/ -mtune=corei7 -march=x86-64 -g -Og
REM COMMAND_LINE
REM seed 818152240 -1060905886 -494589639 755940778 -116051950 -2117147351 1104372056 1649197792 2096146739 247226469 -1147725145 282864622
REM
REM S 3|1.8|5|6|7|30:31:32(qc=5)
REM O 2|1.5|12|13|15|20:21(qc=5)
REM Li 1|1.3|8|9|10|10U:20(qc=5)
REM Fe 3|2.2|2.0|1.0|8|9|10|40:41:32(qc=5)
REM Fe d:4.0 
REM
CELL 1.54180    7.43300    6.20159    6.85252  107.87605   90.00000   90.00000
LATT -1
SFAC Li O  S  Fe 
Li     1  0.3668190000000  0.0828920000000  0.1529940000000 1.0  -0.02
Li     1 -0.1331810000000  0.4171080000000 -0.1529940000000 1.0  -0.02
Li     1 -0.3668190000000 -0.0828920000000 -0.1529940000000 1.0  -0.02
Li     1  0.1331810000000 -0.4171080000000  0.1529940000000 1.0  -0.02
O      2 -0.4555370000000 -0.2673430000000 -0.4055600000000 1.0   0.10
O      2  0.0444630000000 -0.2326570000000  0.4055600000000 1.0   0.10
O      2  0.4555370000000  0.2673430000000  0.4055600000000 1.0   0.10
O      2 -0.0444630000000  0.2326570000000 -0.4055600000000 1.0   0.10
S      3  0.1016450000000 -0.2898350000000 -0.1660850000000 1.0   0.00
S      3 -0.3983550000000 -0.2101650000000  0.1660850000000 1.0   0.00
S      3 -0.1016450000000  0.2898350000000  0.1660850000000 1.0   0.00
S      3  0.3983550000000  0.2101650000000 -0.1660850000000 1.0   0.00
Fe     4 -0.3722440000000  0.4854160000000  0.3346650000000 1.0   3.81
Fe     4  0.1277560000000  0.0145840000000 -0.3346650000000 1.0   3.81
Fe     4  0.3722440000000 -0.4854160000000 -0.3346650000000 1.0   3.81
Fe     4 -0.1277560000000 -0.0145840000000  0.3346650000000 1.0   3.81
Fe     4 -0.5000000000000 -0.0000000000000 -0.5000000000000 1.0   2.23
Fe     4 -0.0000000000000  0.5000000000000 -0.5000000000000 1.0   2.23
END
