TITL LFSO-Li2Fe4S3O2-201026-211711-0a13d9 0.0425 517.218061 -1.12692449E+004 32.0000 32.7529 22 (I41) n - 1
REM
REM Run started: Tue, 27 Oct 2020 04:16:43 +0000 in /scratch/scratch/uccabz1/launch_tmp/launcher_2020-10-27-03-15-10-740802
REM CASTEP 19.11| from code version Version unavailable
REM Functional Perdew Burke Ernzerhof Relativity Koelling-Harmon Dispersion off
REM Cut-off 340.0000 eV Grid scale 1.7500 Gmax 16.5316 1/A FBSC none
REM MP grid 2 2 3 Offset 0.000 0.000 0.000 No. kpts 5 Spacing 0.07
REM Total runtime: 29412.1 s
REM Overall efficiency: 71.2 %
REM
REM
REM
REM compiler GCC version 4.9.2
REM options -cpp -iprefix /scratch/UCL/applications/gcc/4.9.2/bin/../lib/gcc/x86_64-unknown-linux-gnu/4.9.2/ -mtune=corei7 -march=x86-64 -g -O2
REM COMMAND_LINE
REM seed 209881190 -592283427 1454687283 -1887818205 2124394181 -1455739360 1381637890 -757643546 -1880830847 -1836255619 -1873872879 -1767178563
REM
REM S 3|1.8|5|6|7|30:31:32(qc=5)
REM O 2|1.5|12|13|15|20:21(qc=5)
REM Li 1|1.3|8|9|10|10U:20(qc=5)
REM Fe 3|2.2|2.0|1.0|8|9|10|40:41:32(qc=5)
REM Fe d:4.0 
REM
CELL 1.54180    8.77058    8.77058    9.14721  118.64706  118.64706   90.00000
LATT -1
SFAC Li O  S  Fe 
Li     1  0.2811940000000 -0.2678710000000 -0.0790970000000 1.0  -0.05
Li     1  0.6397100000000  0.1887750000000 -0.0790970000000 1.0  -0.05
Li     1  0.4387750000000  0.0311940000000  0.4209030000000 1.0  -0.05
Li     1 -0.0178710000000  0.3897100000000  0.4209030000000 1.0  -0.05
O      2 -0.1372230000000 -0.6323390000000  0.1626610000000 1.0   0.20
O      2  0.2998850000000 -0.2049990000000  0.1626610000000 1.0   0.20
O      2  0.0450010000000 -0.3872230000000 -0.3373390000000 1.0   0.20
O      2 -0.3823390000000  0.0498850000000 -0.3373390000000 1.0   0.20
S      3 -0.4430490000000  0.5459540000000  0.4376870000000 1.0   0.19
S      3 -0.1192630000000 -0.1082660000000  0.4376870000000 1.0   0.19
S      3  0.1417340000000  0.3069510000000 -0.0623130000000 1.0   0.19
S      3 -0.2040460000000 -0.3692630000000 -0.0623130000000 1.0   0.19
S      3  0.1704660000000  0.1704660000000  0.3409300000000 1.0   0.17
S      3  0.4204660000000 -0.0795340000000 -0.1590700000000 1.0   0.17
Fe     4 -0.6426740000000 -0.4003670000000  0.1957220000000 1.0   3.80
Fe     4 -0.1616030000000  0.5960890000000  0.1957220000000 1.0   3.80
Fe     4 -0.1539110000000  0.1073260000000 -0.3042780000000 1.0   3.80
Fe     4 -0.1503670000000  0.5883970000000 -0.3042780000000 1.0   3.80
Fe     4  0.0653520000000  0.2873960000000  0.1404970000000 1.0   3.78
Fe     4  0.0751460000000 -0.1468980000000  0.1404970000000 1.0   3.78
Fe     4  0.1031020000000 -0.1846480000000 -0.3595030000000 1.0   3.78
Fe     4 -0.4626040000000 -0.1748540000000 -0.3595030000000 1.0   3.78
END
