TITL LFSO-Li2Fe4S3O2-201025-110821-2a9a66 0.0782 276.492545 -5.63364381E+003 14.3457 15.1138 11 (P2) n - 1
REM
REM Run started: Sun, 25 Oct 2020 14:03:58 +0000 in /lustre/scratch/uccabz1/launch_tmp/launcher_2020-10-25-11-08-19-480055
REM CASTEP 20.1 from code version af48c487+ pr-geom-scf-spinfix Tue Jun 2 15:39:59 2020 +0100
REM Functional Perdew Burke Ernzerhof Relativity Koelling-Harmon Dispersion off
REM Cut-off 340.0000 eV Grid scale 1.7500 Gmax 16.5316 1/A FBSC none
REM MP grid 5 2 2 Offset 0.000 0.000 0.000 No. kpts 5 Spacing 0.07
REM Total runtime: 10837.7 s
REM Overall efficiency: 78.3077 %
REM
REM
REM
REM compiler GCC version 4.9.2
REM options -cpp -iprefix /lustre/shared/ucl/apps/gcc/4.9.2/bin/../lib/gcc/x86_64-unknown-linux-gnu/4.9.2/ -mtune=corei7 -march=x86-64 -g -Og
REM COMMAND_LINE
REM seed -2134567382 -1229456921 -294312042 1057530972 623012503 435499993 1876524092 -266481164 -1549983296 -1959885689 -62758441 1299645293
REM
REM S 3|1.8|5|6|7|30:31:32(qc=5)
REM O 2|1.5|12|13|15|20:21(qc=5)
REM Li 1|1.3|8|9|10|10U:20(qc=5)
REM Fe 3|2.2|2.0|1.0|8|9|10|40:41:32(qc=5)
REM Fe d:4.0 
REM
CELL 1.54180    3.30707   10.14208    9.46210   90.00000   90.00000  119.39979
LATT -1
SFAC Li O  S  Fe 
Li     1 -0.0003950000000  0.3160950000000 -0.1087250000000 1.0   0.01
Li     1  0.0003950000000 -0.3160950000000 -0.1087250000000 1.0   0.01
O      2  0.4083530000000  0.2676930000000  0.4436660000000 1.0   0.13
O      2 -0.4083530000000 -0.2676930000000  0.4436660000000 1.0   0.13
S      3 -0.6776660000000  0.2027970000000 -0.2517590000000 1.0  -0.14
S      3  0.6776660000000 -0.2027970000000 -0.2517590000000 1.0  -0.14
S      3  0.0000000000000 -0.5000000000000  0.0780200000000 1.0   0.13
Fe     4  0.1291600000000 -0.2387580000000 -0.4333290000000 1.0   3.66
Fe     4 -0.1291600000000  0.2387580000000 -0.4333290000000 1.0   3.66
Fe     4  0.5856970000000  0.3724270000000  0.2759360000000 1.0   3.45
Fe     4 -0.5856970000000 -0.3724270000000  0.2759360000000 1.0   3.45
END
