TITL LFSO-Li3FeS2O-201022-212730-4c38f8 0.4542 530.401751 -7.51593012E+003 11.5294 11.9473 21 (Pmm2) n - 1
REM
REM Run started: Fri, 23 Oct 2020 00:40:38 +0100 in /lustre/scratch/uccabz1/launch_tmp/launcher_2020-10-22-23-30-03-666711
REM CASTEP 20.1 from code version af48c487+ pr-geom-scf-spinfix Tue Jun 2 15:39:59 2020 +0100
REM Functional Perdew Burke Ernzerhof Relativity Koelling-Harmon Dispersion off
REM Cut-off 340.0000 eV Grid scale 1.7500 Gmax 16.5316 1/A FBSC none
REM MP grid 2 3 2 Offset 0.000 0.000 0.000 No. kpts 2 Spacing 0.07
REM Total runtime: 9466.95 s
REM Overall efficiency: 79.6364 %
REM
REM
REM
REM compiler GCC version 4.9.2
REM options -cpp -iprefix /lustre/shared/ucl/apps/gcc/4.9.2/bin/../lib/gcc/x86_64-unknown-linux-gnu/4.9.2/ -mtune=corei7 -march=x86-64 -g -Og
REM COMMAND_LINE
REM seed 708412298 1208656633 540017290 -1946566811 -1011662683 -912725103 1787841626 399464722 2002256625 -1399140750 2112449427 2006089563
REM
REM S 3|1.8|5|6|7|30:31:32(qc=5)
REM O 2|1.5|12|13|15|20:21(qc=5)
REM Li 1|1.3|8|9|10|10U:20(qc=5)
REM Fe 3|2.2|2.0|1.0|8|9|10|40:41:32(qc=5)
REM Fe d:4.0 
REM
CELL 1.54180    9.42925    5.66979    9.92113   90.00000   90.00000   90.00000
LATT -1
SFAC Li O  S  Fe 
Li     1 -0.2365180000000 -0.2878090000000  0.3397620000000 1.0  -0.04
Li     1  0.2365180000000  0.2878090000000  0.3397620000000 1.0  -0.04
Li     1  0.2365180000000 -0.2878090000000  0.3397620000000 1.0  -0.04
Li     1 -0.2365180000000  0.2878090000000  0.3397620000000 1.0  -0.04
Li     1 -0.3538170000000  0.2338290000000 -0.4547670000000 1.0   0.01
Li     1  0.3538170000000 -0.2338290000000 -0.4547670000000 1.0   0.01
Li     1  0.3538170000000  0.2338290000000 -0.4547670000000 1.0   0.01
Li     1 -0.3538170000000 -0.2338290000000 -0.4547670000000 1.0   0.01
Li     1 -0.5000000000000  0.0000000000000 -0.0202680000000 1.0  -0.01
O      2  0.2691630000000 -0.5000000000000  0.4653220000000 1.0   0.01
O      2 -0.2691630000000 -0.5000000000000  0.4653220000000 1.0   0.01
O      2  0.5000000000000  0.0000000000000  0.4698790000000 1.0   0.04
S      3 -0.3071240000000 -0.1870720000000  0.1196790000000 1.0   0.04
S      3  0.3071240000000  0.1870720000000  0.1196790000000 1.0   0.04
S      3  0.3071240000000 -0.1870720000000  0.1196790000000 1.0   0.04
S      3 -0.3071240000000  0.1870720000000  0.1196790000000 1.0   0.04
S      3 -0.1982930000000  0.0000000000000 -0.3205710000000 1.0   0.03
S      3  0.1982930000000  0.0000000000000 -0.3205710000000 1.0   0.03
Fe     4  0.0000000000000  0.2302300000000 -0.3680350000000 1.0   3.38
Fe     4  0.0000000000000 -0.2302300000000 -0.3680350000000 1.0   3.38
Fe     4 -0.5000000000000  0.0000000000000  0.2628230000000 1.0   3.66
END
