TITL LFSO-Li2Fe3S2O2-201024-035423-6cec56 0.0159 388.502529 -8.93802144E+003 24.0000 24.2714 18 (Cmc21) n - 1
REM
REM Run started: Sat, 24 Oct 2020 09:16:18 +0100 in /lustre/scratch/uccabz1/launch_tmp/launcher_2020-10-24-02-54-20-815367
REM CASTEP 20.1 from code version af48c487+ pr-geom-scf-spinfix Tue Jun 2 15:39:59 2020 +0100
REM Functional Perdew Burke Ernzerhof Relativity Koelling-Harmon Dispersion off
REM Cut-off 340.0000 eV Grid scale 1.7500 Gmax 16.5316 1/A FBSC none
REM MP grid 3 3 2 Offset 0.000 0.000 0.000 No. kpts 4 Spacing 0.07
REM Total runtime: 19053 s
REM Overall efficiency: 80.7273 %
REM
REM
REM
REM compiler GCC version 4.9.2
REM options -cpp -iprefix /lustre/shared/ucl/apps/gcc/4.9.2/bin/../lib/gcc/x86_64-unknown-linux-gnu/4.9.2/ -mtune=corei7 -march=x86-64 -g -Og
REM COMMAND_LINE
REM seed 1293351487 1125005007 79578579 -1220690898 -97409622 -1332530265 -1035222394 215183246 -2099655752 76218034 1832523795 -978190694
REM
REM S 3|1.8|5|6|7|30:31:32(qc=5)
REM O 2|1.5|12|13|15|20:21(qc=5)
REM Li 1|1.3|8|9|10|10U:20(qc=5)
REM Fe 3|2.2|2.0|1.0|8|9|10|40:41:32(qc=5)
REM Fe d:4.0 
REM
CELL 1.54180    6.20927    6.20927   11.37414   90.00000   90.00000  117.63504
LATT -1
SFAC Li O  S  Fe 
Li     1 -0.0842950000000 -0.4238200000000  0.0401740000000 1.0  -0.01
Li     1  0.0842950000000  0.4238200000000 -0.4598260000000 1.0  -0.01
Li     1  0.4238200000000  0.0842950000000 -0.4598260000000 1.0  -0.01
Li     1 -0.4238200000000 -0.0842950000000  0.0401740000000 1.0  -0.01
O      2  0.1147500000000  0.4269150000000  0.3748750000000 1.0   0.16
O      2 -0.1147500000000 -0.4269150000000 -0.1251250000000 1.0   0.16
O      2 -0.4269150000000 -0.1147500000000 -0.1251250000000 1.0   0.16
O      2  0.4269150000000  0.1147500000000  0.3748750000000 1.0   0.16
S      3 -0.2281510000000  0.0966200000000 -0.3670940000000 1.0   0.20
S      3  0.2281510000000 -0.0966200000000  0.1329060000000 1.0   0.20
S      3 -0.0966200000000  0.2281510000000  0.1329060000000 1.0   0.20
S      3  0.0966200000000 -0.2281510000000 -0.3670940000000 1.0   0.20
Fe     4 -0.2553750000000  0.2351050000000 -0.1793540000000 1.0   3.77
Fe     4  0.2553750000000 -0.2351050000000  0.3206460000000 1.0   3.77
Fe     4 -0.2351050000000  0.2553750000000  0.3206460000000 1.0   3.77
Fe     4  0.2351050000000 -0.2553750000000 -0.1793540000000 1.0   3.77
Fe     4  0.2030170000000  0.2030170000000  0.2612880000000 1.0   3.74
Fe     4 -0.2030170000000 -0.2030170000000 -0.2387120000000 1.0   3.74
END
