TITL LFSO-Li2Fe2S2O-201022-031259-8948f2 0.1778 239.147374 -6.34060431E+003 16.0000 16.1081 14 (P-1) n - 1
REM
REM Run started: Thu, 22 Oct 2020 13:38:25 +0100 in /lustre/scratch/uccabz1/launch_tmp/launcher_2020-10-22-11-34-07-967209
REM CASTEP 20.1 from code version af48c487+ pr-geom-scf-spinfix Tue Jun 2 15:39:59 2020 +0100
REM Functional Perdew Burke Ernzerhof Relativity Koelling-Harmon Dispersion off
REM Cut-off 340.0000 eV Grid scale 1.7500 Gmax 16.5316 1/A FBSC none
REM MP grid 5 3 2 Offset 0.000 0.000 0.000 No. kpts 15 Spacing 0.07
REM Total runtime: 37563 s
REM Overall efficiency: 75.2 %
REM
REM
REM
REM compiler GCC version 4.9.2
REM options -cpp -iprefix /scratch/UCL/applications/gcc/4.9.2/bin/../lib/gcc/x86_64-unknown-linux-gnu/4.9.2/ -mtune=corei7 -march=x86-64 -g -O2
REM COMMAND_LINE
REM seed -2141162778 14242108 -1482562692 1304422324 -1990072569 -287859389 -1394327248 -46085134 -586686084 638279617 1230658734 1016034303
REM
REM S 3|1.8|5|6|7|30:31:32(qc=5)
REM O 2|1.5|12|13|15|20:21(qc=5)
REM Li 1|1.3|8|9|10|10U:20(qc=5)
REM Fe 3|2.2|2.0|1.0|8|9|10|40:41:32(qc=5)
REM Fe d:4.0 
REM
CELL 1.54180    3.87835    7.77781   10.22886  110.35231   69.81336  122.46122
LATT -1
SFAC Li O  S  Fe 
Li     1  0.2315490000000  0.0742130000000 -0.3943440000000 1.0   0.00
Li     1 -0.2315490000000 -0.0742130000000  0.3943440000000 1.0   0.00
Li     1  0.5948400000000  0.3619450000000 -0.0705980000000 1.0  -0.02
Li     1 -0.5948400000000 -0.3619450000000  0.0705980000000 1.0  -0.02
O      2 -0.3204960000000 -0.4158960000000 -0.1429370000000 1.0   0.18
O      2  0.3204960000000  0.4158960000000  0.1429370000000 1.0   0.18
S      3  0.1101770000000 -0.0814220000000  0.1501410000000 1.0   0.10
S      3 -0.1101770000000  0.0814220000000 -0.1501410000000 1.0   0.10
S      3  0.0082440000000  0.2836660000000 -0.4638240000000 1.0   0.08
S      3 -0.0082440000000 -0.2836660000000  0.4638240000000 1.0   0.08
Fe     4 -0.1400640000000  0.1375350000000  0.1151330000000 1.0   3.80
Fe     4  0.1400640000000 -0.1375350000000 -0.1151330000000 1.0   3.80
Fe     4 -0.3533560000000 -0.4978610000000 -0.3446340000000 1.0   3.85
Fe     4  0.3533560000000  0.4978610000000  0.3446340000000 1.0   3.85
END
