TITL LFSO-Li2Fe3S2O2-201022-095841-9c023c -0.0345 449.686298 -8.93196919E+003 7.99288 23.6175 18 (Aem2) n - 1
REM
REM Run started: Thu, 22 Oct 2020 13:11:06 +0100 in /scratch/scratch/uccabz1/launch_tmp/launcher_2020-10-22-08-58-40-105714
REM CASTEP 19.11| from code version Version unavailable
REM Functional Perdew Burke Ernzerhof Relativity Koelling-Harmon Dispersion off
REM Cut-off 340.0000 eV Grid scale 1.7500 Gmax 16.5316 1/A FBSC none
REM MP grid 3 2 2 Offset 0.000 0.000 0.000 No. kpts 3 Spacing 0.07
REM Total runtime: 13702.7 s
REM Overall efficiency: 86.8333 %
REM
REM
REM
REM compiler GCC version 4.9.2
REM options -cpp -iprefix /scratch/UCL/applications/gcc/4.9.2/bin/../lib/gcc/x86_64-unknown-linux-gnu/4.9.2/ -mtune=corei7 -march=x86-64 -g -O2
REM COMMAND_LINE
REM seed 1801903922 -1480097147 1501643842 1622562995 263076119 657951201 150738887 26279252 1675613084 -1954005480 -1680333647 1492961316
REM
REM S 3|1.8|5|6|7|30:31:32(qc=5)
REM O 2|1.5|12|13|15|20:21(qc=5)
REM Li 1|1.3|8|9|10|10U:20(qc=5)
REM Fe 3|2.2|2.0|1.0|8|9|10|40:41:32(qc=5)
REM Fe d:4.0 
REM
CELL 1.54180    7.31603    7.93860    8.56329   90.00000  115.28838   90.00000
LATT -1
SFAC Li O  S  Fe 
Li     1 -0.1804000000000  0.2804560000000 -0.4069750000000 1.0   0.03
Li     1 -0.2265760000000 -0.2804560000000 -0.4069750000000 1.0   0.03
Li     1  0.2734240000000  0.2804560000000 -0.4069750000000 1.0   0.03
Li     1  0.3196000000000 -0.2804560000000 -0.4069750000000 1.0   0.03
O      2 -0.1015540000000  0.2967700000000 -0.1901080000000 1.0   0.39
O      2 -0.0885530000000 -0.2967700000000 -0.1901080000000 1.0   0.39
O      2  0.4114470000000  0.2967700000000 -0.1901080000000 1.0   0.39
O      2  0.3984460000000 -0.2967700000000 -0.1901080000000 1.0   0.39
S      3  0.1585160000000 -0.2094500000000  0.2963150000000 1.0  -0.09
S      3  0.1377990000000  0.2094500000000  0.2963150000000 1.0  -0.09
S      3 -0.3622010000000 -0.2094500000000  0.2963150000000 1.0  -0.09
S      3 -0.3414840000000  0.2094500000000  0.2963150000000 1.0  -0.09
Fe     4  0.0627940000000 -0.3299520000000  0.0265180000000 1.0   3.54
Fe     4 -0.0362760000000  0.3299520000000  0.0265180000000 1.0   3.54
Fe     4  0.4637240000000 -0.3299520000000  0.0265180000000 1.0   3.54
Fe     4 -0.4372060000000  0.3299520000000  0.0265180000000 1.0   3.54
Fe     4  0.3890650000000  0.0164960000000  0.2781300000000 1.0  -3.75
Fe     4 -0.1109350000000 -0.0164960000000  0.2781300000000 1.0  -3.75
END
