TITL LFSO-Li2Fe3S3O-201026-002714-9b1b00 0.0137 172.502735 -4.33503562E+003 11.9998 12.0967 9 (P2) n - 1
REM
REM Run started: Mon, 26 Oct 2020 02:43:58 +0000 in /lustre/scratch/uccabz1/launch_tmp/launcher_2020-10-26-00-27-13-120330
REM CASTEP 20.1 from code version af48c487+ pr-geom-scf-spinfix Tue Jun 2 15:39:59 2020 +0100
REM Functional Perdew Burke Ernzerhof Relativity Koelling-Harmon Dispersion off
REM Cut-off 340.0000 eV Grid scale 1.7500 Gmax 16.5316 1/A FBSC none
REM MP grid 5 3 3 Offset 0.000 0.000 0.000 No. kpts 15 Spacing 0.07
REM Total runtime: 8682.31 s
REM Overall efficiency: 72.8571 %
REM
REM
REM
REM compiler GCC version 4.9.2
REM options -cpp -iprefix /lustre/shared/ucl/apps/gcc/4.9.2/bin/../lib/gcc/x86_64-unknown-linux-gnu/4.9.2/ -mtune=corei7 -march=x86-64 -g -Og
REM COMMAND_LINE
REM seed 255170418 -671798881 110185885 -1372651451 -244890424 1300576328 -713267857 -122682919 -1600954574 1086655112 722067933 91861325
REM
REM S 3|1.8|5|6|7|30:31:32(qc=5)
REM O 2|1.5|12|13|15|20:21(qc=5)
REM Li 1|1.3|8|9|10|10U:20(qc=5)
REM Fe 3|2.2|2.0|1.0|8|9|10|40:41:32(qc=5)
REM Fe d:4.0 
REM
CELL 1.54180    3.52279    7.23557    9.96260  137.21084   90.00000   90.00000
LATT -1
SFAC Li O  S  Fe 
Li     1 -0.3781560000000 -0.0903350000000 -0.4132490000000 1.0  -0.01
Li     1 -0.3781560000000  0.0903350000000  0.4132490000000 1.0  -0.01
O      2  0.1301000000000  0.0000000000000  0.0000000000000 1.0   0.31
S      3  0.0892880000000  0.3007940000000 -0.2509580000000 1.0   0.16
S      3  0.0892880000000 -0.3007940000000  0.2509580000000 1.0   0.16
S      3 -0.4618930000000 -0.5000000000000  0.5000000000000 1.0   0.05
Fe     4 -0.0228900000000 -0.3389940000000 -0.2387380000000 1.0   3.81
Fe     4 -0.0228900000000  0.3389940000000  0.2387380000000 1.0   3.81
Fe     4 -0.3862790000000  0.5000000000000  0.0000000000000 1.0   3.72
END
