TITL LFSO-Li2Fe3S2O2-201022-084643-6be9e6 -0.0668 359.264997 -8.93808913E+003 24.0000 24.2278 18 (C2) n - 1
REM
REM Run started: Thu, 22 Oct 2020 14:53:01 +0100 in /lustre/scratch/uccabz1/launch_tmp/launcher_2020-10-22-07-46-42-258055
REM CASTEP 20.1 from code version af48c487+ pr-geom-scf-spinfix Tue Jun 2 15:39:59 2020 +0100
REM Functional Perdew Burke Ernzerhof Relativity Koelling-Harmon Dispersion off
REM Cut-off 340.0000 eV Grid scale 1.7500 Gmax 16.5316 1/A FBSC none
REM MP grid 3 3 2 Offset 0.000 0.000 0.000 No. kpts 6 Spacing 0.07
REM Total runtime: 23651.4 s
REM Overall efficiency: 94.5 %
REM
REM
REM
REM compiler GCC version 4.9.2
REM options -cpp -iprefix /lustre/shared/ucl/apps/gcc/4.9.2/bin/../lib/gcc/x86_64-unknown-linux-gnu/4.9.2/ -mtune=corei7 -march=x86-64 -g -Og
REM COMMAND_LINE
REM seed 10498619 -1264766421 354419337 -1455160577 -365661831 -1499636137 1704936595 -1593805774 -1307480850 -1294345250 -1261696083 -1071923400
REM
REM S 3|1.8|5|6|7|30:31:32(qc=5)
REM O 2|1.5|12|13|15|20:21(qc=5)
REM Li 1|1.3|8|9|10|10U:20(qc=5)
REM Fe 3|2.2|2.0|1.0|8|9|10|40:41:32(qc=5)
REM Fe d:4.0 
REM
CELL 1.54180    7.10595    7.10595    8.73233  108.43051  108.43051  106.40522
LATT -1
SFAC Li O  S  Fe 
Li     1  0.1483430000000 -0.1504640000000 -0.2502320000000 1.0  -0.02
Li     1  0.1504640000000 -0.1483430000000  0.2502320000000 1.0  -0.02
Li     1  0.4207470000000 -0.1533880000000  0.1464920000000 1.0  -0.04
Li     1  0.1533880000000 -0.4207470000000 -0.1464920000000 1.0  -0.04
O      2  0.4687940000000 -0.0270230000000  0.4009930000000 1.0   0.24
O      2  0.0270230000000 -0.4687940000000 -0.4009930000000 1.0   0.24
O      2  0.3858740000000 -0.1292100000000 -0.0677990000000 1.0   0.19
O      2  0.1292100000000 -0.3858740000000  0.0677990000000 1.0   0.19
S      3 -0.4876320000000  0.4604220000000  0.2335470000000 1.0   0.11
S      3 -0.4604220000000  0.4876320000000 -0.2335470000000 1.0   0.11
S      3 -0.0456390000000  0.1409060000000  0.2366020000000 1.0   0.10
S      3 -0.1409060000000  0.0456390000000 -0.2366020000000 1.0   0.10
Fe     4  0.6434160000000  0.2238310000000 -0.3674200000000 1.0   3.84
Fe     4 -0.2238310000000 -0.6434160000000  0.3674200000000 1.0   3.84
Fe     4 -0.4198090000000 -0.2271510000000  0.4686690000000 1.0   3.77
Fe     4  0.2271510000000  0.4198090000000 -0.4686690000000 1.0   3.77
Fe     4 -0.3748620000000 -0.1171460000000 -0.1120540000000 1.0   3.81
Fe     4  0.1171460000000  0.3748620000000  0.1120540000000 1.0   3.81
END
