TITL LFSO-Li4Fe2S3O-201025-224512-22a135 -0.0400 168.194096 -3.87052344E+003 8.00000 8.10646 10 (P-4) n - 1
REM
REM Run started: Sun, 25 Oct 2020 23:10:08 +0000 in /lustre/scratch/uccabz1/launch_tmp/launcher_2020-10-25-22-45-11-100115
REM CASTEP 20.1 from code version af48c487+ pr-geom-scf-spinfix Tue Jun 2 15:39:59 2020 +0100
REM Functional Perdew Burke Ernzerhof Relativity Koelling-Harmon Dispersion off
REM Cut-off 340.0000 eV Grid scale 1.7500 Gmax 16.5316 1/A FBSC none
REM MP grid 4 4 2 Offset 0.000 0.000 0.000 No. kpts 4 Spacing 0.07
REM Total runtime: 1607.76 s
REM Overall efficiency: 72.6667 %
REM
REM
REM
REM compiler GCC version 4.9.2
REM options -cpp -iprefix /lustre/shared/ucl/apps/gcc/4.9.2/bin/../lib/gcc/x86_64-unknown-linux-gnu/4.9.2/ -mtune=corei7 -march=x86-64 -g -Og
REM COMMAND_LINE
REM seed 50572602 1295510356 1208832203 -143236196 2104997118 701640756 1941963858 -646274091 1616092868 497487101 -1044171750 -129456413
REM
REM S 3|1.8|5|6|7|30:31:32(qc=5)
REM O 2|1.5|12|13|15|20:21(qc=5)
REM Li 1|1.3|8|9|10|10U:20(qc=5)
REM Fe 3|2.2|2.0|1.0|8|9|10|40:41:32(qc=5)
REM Fe d:4.0 
REM
CELL 1.54180    4.75783    4.75783    7.43008   90.00000   90.00000   90.00000
LATT -1
SFAC Li O  S  Fe 
Li     1  0.2629600000000 -0.1258840000000 -0.1639650000000 1.0  -0.04
Li     1 -0.2629600000000  0.1258840000000 -0.1639650000000 1.0  -0.04
Li     1 -0.1258840000000 -0.2629600000000  0.1639650000000 1.0  -0.04
Li     1  0.1258840000000  0.2629600000000  0.1639650000000 1.0  -0.04
O      2  0.0000000000000  0.0000000000000 -0.5000000000000 1.0   0.20
S      3  0.5000000000000  0.0000000000000  0.1055530000000 1.0   0.06
S      3  0.0000000000000  0.5000000000000 -0.1055530000000 1.0   0.06
S      3  0.5000000000000 -0.5000000000000 -0.5000000000000 1.0   0.10
Fe     4  0.0000000000000  0.5000000000000  0.5615730000000 1.0   3.87
Fe     4 -0.5000000000000  0.0000000000000 -0.5615730000000 1.0   3.87
END
