TITL LFSO-Li2Fe2S2O-201023-170255-5763b4 -0.0137 325.934888 -9.50920007E+003 24.0000 24.1810 21 (P32) n - 1
REM
REM Run started: Fri, 23 Oct 2020 23:26:29 +0100 in /lustre/scratch/uccabz1/launch_tmp/launcher_2020-10-23-16-02-53-440372
REM CASTEP 20.1 from code version af48c487+ pr-geom-scf-spinfix Tue Jun 2 15:39:59 2020 +0100
REM Functional Perdew Burke Ernzerhof Relativity Koelling-Harmon Dispersion off
REM Cut-off 340.0000 eV Grid scale 1.7500 Gmax 16.5316 1/A FBSC none
REM MP grid 2 3 3 Offset 0.000 0.000 0.000 No. kpts 5 Spacing 0.07
REM Total runtime: 23960.8 s
REM Overall efficiency: 77.3333 %
REM
REM
REM
REM compiler GCC version 4.9.2
REM options -cpp -iprefix /lustre/shared/ucl/apps/gcc/4.9.2/bin/../lib/gcc/x86_64-unknown-linux-gnu/4.9.2/ -mtune=corei7 -march=x86-64 -g -Og
REM COMMAND_LINE
REM seed 823310915 465488690 -1804707765 2106338177 1502795664 -354283940 1491777196 -595304411 1564948193 1162419440 -504003219 160399484
REM
REM S 3|1.8|5|6|7|30:31:32(qc=5)
REM O 2|1.5|12|13|15|20:21(qc=5)
REM Li 1|1.3|8|9|10|10U:20(qc=5)
REM Fe 3|2.2|2.0|1.0|8|9|10|40:41:32(qc=5)
REM Fe d:4.0 
REM
CELL 1.54180    8.04132    6.84127    6.84127  120.00000   90.00000   90.00000
LATT -1
SFAC Li O  S  Fe 
Li     1  0.5395760000000  0.1416300000000 -0.3967710000000 1.0  -0.03
Li     1  0.2062430000000  0.3967710000000  0.5384010000000 1.0  -0.03
Li     1 -0.1270910000000 -0.5384010000000 -0.1416300000000 1.0  -0.03
Li     1  0.3495900000000  0.1761910000000  0.1190170000000 1.0  -0.03
Li     1  0.0162570000000 -0.1190170000000  0.0571730000000 1.0  -0.03
Li     1 -0.3170770000000 -0.0571730000000 -0.1761910000000 1.0  -0.03
O      2 -0.0283020000000 -0.3477320000000  0.1592040000000 1.0   0.20
O      2 -0.3616350000000 -0.1592040000000 -0.5069360000000 1.0   0.20
O      2  0.3050310000000  0.5069360000000  0.3477320000000 1.0   0.20
S      3  0.4272690000000 -0.3114440000000 -0.1822300000000 1.0   0.09
S      3  0.0939360000000  0.1822300000000 -0.1292150000000 1.0   0.09
S      3 -0.2393980000000  0.1292150000000  0.3114440000000 1.0   0.09
S      3  0.2855360000000 -0.0030300000000  0.3532400000000 1.0   0.12
S      3 -0.0477970000000 -0.3532400000000  0.6437300000000 1.0   0.12
S      3 -0.3811310000000 -0.6437300000000  0.0030300000000 1.0   0.12
Fe     4 -0.0998890000000 -0.0983760000000 -0.5408620000000 1.0   3.84
Fe     4 -0.4332230000000  0.5408620000000  0.4424860000000 1.0   3.84
Fe     4  0.2334440000000 -0.4424860000000  0.0983760000000 1.0   3.84
Fe     4  0.2304490000000 -0.1752330000000 -0.3963730000000 1.0   3.80
Fe     4 -0.1028850000000  0.3963730000000  0.2211400000000 1.0   3.80
Fe     4 -0.4362180000000 -0.2211400000000  0.1752330000000 1.0   3.80
END
