TITL LFSO-Li6FeSO3-201028-061758-76a79e -0.0302 286.023494 -7.35353314E+003 8.10609 8.57617 22 (P3) n - 1
REM
REM Run started: Wed, 28 Oct 2020 08:38:14 +0000 in /scratch/scratch/uccabz1/launch_tmp/launcher_2020-10-28-06-17-56-788419
REM CASTEP 19.11| from code version Version unavailable
REM Functional Perdew Burke Ernzerhof Relativity Koelling-Harmon Dispersion off
REM Cut-off 340.0000 eV Grid scale 1.7500 Gmax 16.5316 1/A FBSC none
REM MP grid 3 3 3 Offset 0.000 0.000 0.000 No. kpts 8 Spacing 0.07
REM Total runtime: 9382.73 s
REM Overall efficiency: 97.1429 %
REM
REM
REM
REM compiler GCC version 4.9.2
REM options -cpp -iprefix /scratch/UCL/applications/gcc/4.9.2/bin/../lib/gcc/x86_64-unknown-linux-gnu/4.9.2/ -mtune=corei7 -march=x86-64 -g -O2
REM COMMAND_LINE
REM seed -802736177 -498917731 -1356778647 -1537785829 -1894670302 1042901069 -280411158 472081769 -269566064 -1391800813 1852539839 -1757043472
REM
REM S 3|1.8|5|6|7|30:31:32(qc=5)
REM O 2|1.5|12|13|15|20:21(qc=5)
REM Li 1|1.3|8|9|10|10U:20(qc=5)
REM Fe 3|2.2|2.0|1.0|8|9|10|40:41:32(qc=5)
REM Fe d:4.0 
REM
CELL 1.54180    7.71443    7.71443    5.54962   90.00000   90.00000  120.00000
LATT -1
SFAC Li O  S  Fe 
Li     1  0.3991290000000 -0.0189690000000  0.2163320000000 1.0  -0.00
Li     1 -0.4180980000000 -0.3991290000000  0.2163320000000 1.0  -0.00
Li     1  0.0189690000000  0.4180980000000  0.2163320000000 1.0  -0.00
Li     1  0.6333090000000  0.0524430000000 -0.0843540000000 1.0  -0.02
Li     1  0.4191340000000 -0.6333090000000 -0.0843540000000 1.0  -0.02
Li     1 -0.0524430000000 -0.4191340000000 -0.0843540000000 1.0  -0.02
Li     1 -0.2204680000000 -0.4386460000000 -0.4544490000000 1.0  -0.02
Li     1 -0.2181770000000  0.2204680000000 -0.4544490000000 1.0  -0.02
Li     1  0.4386460000000  0.2181770000000 -0.4544490000000 1.0  -0.02
Li     1  0.2188540000000  0.4628570000000 -0.3789020000000 1.0  -0.01
Li     1  0.2440020000000 -0.2188540000000 -0.3789020000000 1.0  -0.01
Li     1 -0.4628570000000 -0.2440020000000 -0.3789020000000 1.0  -0.01
O      2  0.2374510000000  0.0832290000000 -0.0006360000000 1.0   0.23
O      2 -0.1542220000000 -0.2374510000000 -0.0006360000000 1.0   0.23
O      2 -0.0832290000000  0.1542220000000 -0.0006360000000 1.0   0.23
O      2 -0.4898990000000 -0.0033480000000  0.5752870000000 1.0  -0.01
O      2  0.4865510000000  0.4898990000000  0.5752870000000 1.0  -0.01
O      2  0.0033480000000 -0.4865510000000  0.5752870000000 1.0  -0.01
S      3 -0.3333330000000  0.3333330000000  0.1558460000000 1.0  -0.09
S      3  0.3333330000000 -0.3333330000000  0.0316800000000 1.0  -0.02
Fe     4  0.0000000000000 -0.0000000000000 -0.1954960000000 1.0   3.84
Fe     4  0.0000000000000 -0.0000000000000  0.2226800000000 1.0   3.90
END
