TITL LFSO-Li4Fe2S3O-201026-045104-79749b -0.0511 455.646482 -7.74655089E+003 16.0000 16.2398 20 (P-1) n - 1
REM
REM Run started: Tue, 27 Oct 2020 00:45:32 +0000 in /lustre/scratch/uccabz1/launch_tmp/launcher_2020-10-26-23-18-14-889984
REM CASTEP 20.1 from code version af48c487+ pr-geom-scf-spinfix Tue Jun 2 15:39:59 2020 +0100
REM Functional Perdew Burke Ernzerhof Relativity Koelling-Harmon Dispersion off
REM Cut-off 340.0000 eV Grid scale 1.7500 Gmax 16.5316 1/A FBSC none
REM MP grid 4 2 3 Offset 0.000 0.000 0.000 No. kpts 12 Spacing 0.07
REM Total runtime: 68866.4 s
REM Overall efficiency: 80.6364 %
REM
REM
REM
REM compiler GCC version 4.9.2
REM options -cpp -iprefix /lustre/shared/ucl/apps/gcc/4.9.2/bin/../lib/gcc/x86_64-unknown-linux-gnu/4.9.2/ -mtune=corei7 -march=x86-64 -g -Og
REM COMMAND_LINE
REM seed -1397238124 785542425 1080771625 -303125561 1327181212 1272516801 110301823 669879929 -1383865456 700512464 1403515797 1921758291
REM
REM S 3|1.8|5|6|7|30:31:32(qc=5)
REM O 2|1.5|12|13|15|20:21(qc=5)
REM Li 1|1.3|8|9|10|10U:20(qc=5)
REM Fe 3|2.2|2.0|1.0|8|9|10|40:41:32(qc=5)
REM Fe d:4.0 
REM
CELL 1.54180    7.18527   10.01952   10.16982   81.77163   42.69832   69.11584
LATT -1
SFAC Li O  S  Fe 
Li     1 -0.0309200000000 -0.1128770000000 -0.0310670000000 1.0   0.01
Li     1  0.0309200000000  0.1128770000000  0.0310670000000 1.0   0.01
Li     1  0.1180010000000 -0.2972950000000  0.1925580000000 1.0  -0.03
Li     1 -0.1180010000000  0.2972950000000 -0.1925580000000 1.0  -0.03
Li     1  0.3822020000000  0.1907290000000  0.4567050000000 1.0   0.00
Li     1 -0.3822020000000 -0.1907290000000 -0.4567050000000 1.0   0.00
Li     1 -0.6904790000000 -0.0827560000000  0.4824960000000 1.0   0.00
Li     1  0.6904790000000  0.0827560000000 -0.4824960000000 1.0   0.00
O      2  0.1937370000000  0.3741670000000  0.6149990000000 1.0   0.18
O      2 -0.1937370000000 -0.3741670000000 -0.6149990000000 1.0   0.18
S      3  0.1904240000000  0.0378620000000 -0.2597120000000 1.0   0.02
S      3 -0.1904240000000 -0.0378620000000  0.2597120000000 1.0   0.02
S      3 -0.2060380000000  0.3671840000000  0.1130860000000 1.0   0.15
S      3  0.2060380000000 -0.3671840000000 -0.1130860000000 1.0   0.15
S      3 -0.2702180000000  0.2624510000000 -0.3732040000000 1.0   0.12
S      3  0.2702180000000 -0.2624510000000  0.3732040000000 1.0   0.12
Fe     4  0.2225180000000  0.4000130000000 -0.2113340000000 1.0   3.82
Fe     4 -0.2225180000000 -0.4000130000000  0.2113340000000 1.0   3.82
Fe     4  0.3206060000000  0.5033970000000  0.4315920000000 1.0   3.72
Fe     4 -0.3206060000000 -0.5033970000000 -0.4315920000000 1.0   3.72
END
