TITL LFSO-LiFe3S4O-201028-121950-e94461 -0.0266 174.389171 -4.43724724E+003 9.05564 11.2214 9 (I222) n - 1
REM
REM Run started: Wed, 28 Oct 2020 13:37:49 +0000 in /lustre/scratch/uccabz1/launch_tmp/launcher_2020-10-28-12-19-48-809351
REM CASTEP 20.1 from code version af48c487+ pr-geom-scf-spinfix Tue Jun 2 15:39:59 2020 +0100
REM Functional Perdew Burke Ernzerhof Relativity Koelling-Harmon Dispersion off
REM Cut-off 340.0000 eV Grid scale 1.7500 Gmax 16.5316 1/A FBSC none
REM MP grid 3 3 3 Offset 0.000 0.000 0.000 No. kpts 8 Spacing 0.07
REM Total runtime: 5446.82 s
REM Overall efficiency: 80.5 %
REM
REM
REM
REM compiler GCC version 4.9.2
REM options -cpp -iprefix /lustre/shared/ucl/apps/gcc/4.9.2/bin/../lib/gcc/x86_64-unknown-linux-gnu/4.9.2/ -mtune=corei7 -march=x86-64 -g -Og
REM COMMAND_LINE
REM seed -1024027059 1034703948 -1829975811 437173642 1807043638 229913992 -1638363812 1815960944 -410660948 1673009582 -1153736470 -829001100
REM
REM S 3|1.8|5|6|7|30:31:32(qc=5)
REM O 2|1.5|12|13|15|20:21(qc=5)
REM Li 1|1.3|8|9|10|10U:20(qc=5)
REM Fe 3|2.2|2.0|1.0|8|9|10|40:41:32(qc=5)
REM Fe d:4.0 
REM
CELL 1.54180    6.11972    6.59845    6.59845   49.57859   62.37241   62.37241
LATT -1
SFAC Li O  S  Fe 
Li     1 -0.5000000000000  0.5000000000000  0.5000000000000 1.0  -0.06
O      2 -0.0000000000000  0.0000000000000  0.0000000000000 1.0   0.04
S      3  0.4027430000000  0.1864410000000  0.4945770000000 1.0  -0.32
S      3  0.0837610000000 -0.1864410000000 -0.4945770000000 1.0  -0.32
S      3 -0.4027430000000 -0.4945770000000 -0.1864410000000 1.0  -0.32
S      3 -0.0837610000000  0.4945770000000  0.1864410000000 1.0  -0.32
Fe     4 -0.1805780000000  0.1805780000000  0.1805780000000 1.0   3.44
Fe     4  0.1805780000000 -0.1805780000000 -0.1805780000000 1.0   3.44
Fe     4 -0.0000000000000  0.5000000000000 -0.5000000000000 1.0   3.47
END
