TITL LFSO-Li5FeSO3-201026-153807-c50c0e 0.0457 290.800640 -6.95768058E+003 10.0000 10.0897 20 (R3) n - 1
REM
REM Run started: Mon, 26 Oct 2020 17:20:31 +0000 in /lustre/scratch/uccabz1/launch_tmp/launcher_2020-10-26-15-38-05-344791
REM CASTEP 20.1 from code version af48c487+ pr-geom-scf-spinfix Tue Jun 2 15:39:59 2020 +0100
REM Functional Perdew Burke Ernzerhof Relativity Koelling-Harmon Dispersion off
REM Cut-off 340.0000 eV Grid scale 1.7500 Gmax 16.5316 1/A FBSC none
REM MP grid 3 3 3 Offset 0.000 0.000 0.000 No. kpts 6 Spacing 0.07
REM Total runtime: 6238.97 s
REM Overall efficiency: 94.125 %
REM
REM
REM
REM compiler GCC version 4.9.2
REM options -cpp -iprefix /lustre/shared/ucl/apps/gcc/4.9.2/bin/../lib/gcc/x86_64-unknown-linux-gnu/4.9.2/ -mtune=corei7 -march=x86-64 -g -Og
REM COMMAND_LINE
REM seed -1933444580 -1308696499 114410644 1530944637 210347090 893174884 -1056987053 -1897274879 -2027496544 -1901452412 -1132304484 -1650159798
REM
REM S 3|1.8|5|6|7|30:31:32(qc=5)
REM O 2|1.5|12|13|15|20:21(qc=5)
REM Li 1|1.3|8|9|10|10U:20(qc=5)
REM Fe 3|2.2|2.0|1.0|8|9|10|40:41:32(qc=5)
REM Fe d:4.0 
REM
CELL 1.54180    6.94180    6.94180    6.94180   71.21574   71.21574   71.21574
LATT -1
SFAC Li O  S  Fe 
Li     1  0.1483300000000  0.4760520000000 -0.0753570000000 1.0  -0.02
Li     1  0.4760520000000 -0.0753570000000  0.1483300000000 1.0  -0.02
Li     1 -0.0753570000000  0.1483300000000  0.4760520000000 1.0  -0.02
Li     1 -0.3943160000000  0.3738930000000 -0.1431870000000 1.0  -0.00
Li     1  0.3738930000000 -0.1431870000000 -0.3943160000000 1.0  -0.00
Li     1 -0.1431870000000 -0.3943160000000  0.3738930000000 1.0  -0.00
Li     1  0.1490130000000 -0.2785160000000 -0.4718970000000 1.0   0.02
Li     1 -0.2785160000000 -0.4718970000000  0.1490130000000 1.0   0.02
Li     1 -0.4718970000000  0.1490130000000 -0.2785160000000 1.0   0.02
Li     1  0.1050510000000  0.1050510000000  0.1050510000000 1.0   0.02
O      2  0.3650250000000  0.2252670000000 -0.0226320000000 1.0   0.25
O      2  0.2252670000000 -0.0226320000000  0.3650250000000 1.0   0.25
O      2 -0.0226320000000  0.3650250000000  0.2252670000000 1.0   0.25
O      2 -0.2065350000000  0.1603220000000 -0.2568090000000 1.0   0.27
O      2  0.1603220000000 -0.2568090000000 -0.2065350000000 1.0   0.27
O      2 -0.2568090000000 -0.2065350000000  0.1603220000000 1.0   0.27
S      3 -0.2831240000000 -0.2831240000000 -0.2831240000000 1.0   0.17
S      3  0.4064560000000  0.4064560000000  0.4064560000000 1.0   0.19
Fe     4 -0.1230090000000 -0.1230090000000 -0.1230090000000 1.0   4.03
Fe     4  0.2605570000000  0.2605570000000  0.2605570000000 1.0   4.03
END
