TITL LFSO-Li4Fe2S3O-201026-070237-49c067 0.0237 365.204370 -7.74428241E+003 15.9992 16.2379 20 (P3) n - 1
REM
REM Run started: Mon, 26 Oct 2020 11:39:30 +0000 in /lustre/scratch/uccabz1/launch_tmp/launcher_2020-10-26-07-02-35-820851
REM CASTEP 20.1 from code version af48c487+ pr-geom-scf-spinfix Tue Jun 2 15:39:59 2020 +0100
REM Functional Perdew Burke Ernzerhof Relativity Koelling-Harmon Dispersion off
REM Cut-off 340.0000 eV Grid scale 1.7500 Gmax 16.5316 1/A FBSC none
REM MP grid 4 2 2 Offset 0.000 0.000 0.000 No. kpts 8 Spacing 0.07
REM Total runtime: 16682.7 s
REM Overall efficiency: 76.125 %
REM
REM
REM
REM compiler GCC version 4.9.2
REM options -cpp -iprefix /lustre/shared/ucl/apps/gcc/4.9.2/bin/../lib/gcc/x86_64-unknown-linux-gnu/4.9.2/ -mtune=corei7 -march=x86-64 -g -Og
REM COMMAND_LINE
REM seed 1915634251 2084428544 -1029578528 -330582178 589569213 -1227019076 -2090772887 -908148899 -886430065 457974041 -1010541431 -1332530265
REM
REM S 3|1.8|5|6|7|30:31:32(qc=5)
REM O 2|1.5|12|13|15|20:21(qc=5)
REM Li 1|1.3|8|9|10|10U:20(qc=5)
REM Fe 3|2.2|2.0|1.0|8|9|10|40:41:32(qc=5)
REM Fe d:4.0 
REM
CELL 1.54180    4.20445   10.01493   10.01493  120.00000   90.00000   90.00000
LATT -1
SFAC Li O  S  Fe 
Li     1 -0.0302550000000  0.2782960000000  0.4658070000000 1.0   0.01
Li     1 -0.0302550000000  0.1875110000000 -0.2782960000000 1.0   0.01
Li     1 -0.0302550000000 -0.4658070000000 -0.1875110000000 1.0   0.01
Li     1 -0.5193730000000 -0.2767650000000 -0.2955690000000 1.0  -0.05
Li     1 -0.5193730000000 -0.0188040000000  0.2767650000000 1.0  -0.05
Li     1 -0.5193730000000  0.2955690000000  0.0188040000000 1.0  -0.05
Li     1  0.1054720000000  0.0000000000000 -0.0000000000000 1.0  -0.15
Li     1  0.4390980000000  0.3333330000000 -0.3333330000000 1.0  -0.03
O      2  0.5412850000000 -0.3333330000000  0.3333330000000 1.0   0.28
O      2 -0.1237960000000  0.3333330000000 -0.3333330000000 1.0   0.05
S      3  0.0394410000000  0.4524770000000  0.0178580000000 1.0   0.10
S      3  0.0394410000000 -0.4346180000000 -0.4524770000000 1.0   0.10
S      3  0.0394410000000 -0.0178580000000  0.4346180000000 1.0   0.10
S      3  0.5224380000000  0.2063550000000  0.2335480000000 1.0   0.16
S      3  0.5224380000000  0.0271930000000 -0.2063550000000 1.0   0.16
S      3  0.5224380000000 -0.2335480000000 -0.0271930000000 1.0   0.16
Fe     4 -0.4769560000000  0.6036920000000  0.1177850000000 1.0   3.87
Fe     4 -0.4769560000000  0.5140930000000 -0.6036920000000 1.0   3.87
Fe     4 -0.4769560000000 -0.1177850000000 -0.5140930000000 1.0   3.87
Fe     4 -0.3975770000000  0.0000000000000 -0.0000000000000 1.0   3.57
END
