TITL LFSO-Li4Fe2S3O-201027-100307-a72de4 0.0023 460.037693 -7.74507003E+003 8.00000 15.9198 20 (R3) n - 1
REM
REM Run started: Wed, 28 Oct 2020 00:02:17 +0000 in /scratch/scratch/uccabz1/launch_tmp/launcher_2020-10-27-10-03-05-839751
REM CASTEP 19.11| from code version Version unavailable
REM Functional Perdew Burke Ernzerhof Relativity Koelling-Harmon Dispersion off
REM Cut-off 340.0000 eV Grid scale 1.7500 Gmax 16.5316 1/A FBSC none
REM MP grid 2 2 3 Offset 0.000 0.000 0.000 No. kpts 6 Spacing 0.07
REM Total runtime: 59196.6 s
REM Overall efficiency: 97.7 %
REM
REM
REM
REM compiler GCC version 4.9.2
REM options -cpp -iprefix /scratch/UCL/applications/gcc/4.9.2/bin/../lib/gcc/x86_64-unknown-linux-gnu/4.9.2/ -mtune=corei7 -march=x86-64 -g -O2
REM COMMAND_LINE
REM seed -808328283 64119393 -1766953165 -1284854362 692420493 419998504 509981990 -966664235 -310947942 1023112359 1127808972 963429165
REM
REM S 3|1.8|5|6|7|30:31:32(qc=5)
REM O 2|1.5|12|13|15|20:21(qc=5)
REM Li 1|1.3|8|9|10|10U:20(qc=5)
REM Fe 3|2.2|2.0|1.0|8|9|10|40:41:32(qc=5)
REM Fe d:4.0 
REM
CELL 1.54180    9.38288    9.38288    8.10881   54.65061   54.65061   60.00000
LATT -1
SFAC Li O  S  Fe 
Li     1  0.0238130000000  0.0195720000000 -0.4362860000000 1.0  -0.02
Li     1  0.0195720000000 -0.6071000000000 -0.4362860000000 1.0  -0.02
Li     1 -0.6071000000000  0.0238130000000 -0.4362860000000 1.0  -0.02
Li     1  0.5342330000000  0.2151950000000  0.0570810000000 1.0   0.01
Li     1  0.2151950000000  0.1934900000000  0.0570810000000 1.0   0.01
Li     1  0.1934900000000  0.5342330000000  0.0570810000000 1.0   0.01
Li     1  0.4135040000000  0.4135040000000 -0.2405110000000 1.0  -0.08
Li     1 -0.1572490000000 -0.1572490000000  0.4717470000000 1.0   0.03
O      2  0.3164190000000  0.3164190000000  0.0507420000000 1.0   0.01
O      2 -0.4788170000000 -0.4788170000000  0.4364520000000 1.0   0.16
S      3  0.2260420000000  0.2457530000000 -0.2831840000000 1.0   0.10
S      3  0.2457530000000 -0.1886100000000 -0.2831840000000 1.0   0.10
S      3 -0.1886100000000  0.2260420000000 -0.2831840000000 1.0   0.10
S      3 -0.3233560000000  0.1151490000000  0.2846550000000 1.0   0.05
S      3  0.1151490000000 -0.0764480000000  0.2846550000000 1.0   0.05
S      3 -0.0764480000000 -0.3233560000000  0.2846550000000 1.0   0.05
Fe     4  0.3254790000000 -0.2542720000000  0.4322960000000 1.0   3.75
Fe     4 -0.2542720000000  0.4964980000000  0.4322960000000 1.0   3.75
Fe     4  0.4964980000000  0.3254790000000  0.4322960000000 1.0   3.75
Fe     4 -0.0051130000000 -0.0051130000000  0.0153390000000 1.0  -3.79
END
