TITL LFSO-Li4Fe3S3O2-201029-020910-a6009d -0.0680 494.058969 -1.03451387E+004 22.9994 23.3264 24 (Pc) n - 1
REM
REM Run started: Thu, 29 Oct 2020 17:44:53 +0000 in /lustre/scratch/uccabz1/launch_tmp/launcher_2020-10-29-02-09-09-105099
REM CASTEP 20.1 from code version af48c487+ pr-geom-scf-spinfix Tue Jun 2 15:39:59 2020 +0100
REM Functional Perdew Burke Ernzerhof Relativity Koelling-Harmon Dispersion off
REM Cut-off 340.0000 eV Grid scale 1.7500 Gmax 16.5316 1/A FBSC none
REM MP grid 4 3 2 Offset 0.000 0.000 0.000 No. kpts 8 Spacing 0.07
REM Total runtime: 62403.2 s
REM Overall efficiency: 74.9167 %
REM
REM
REM
REM compiler GCC version 4.9.2
REM options -cpp -iprefix /lustre/shared/ucl/apps/gcc/4.9.2/bin/../lib/gcc/x86_64-unknown-linux-gnu/4.9.2/ -mtune=corei7 -march=x86-64 -g -Og
REM COMMAND_LINE
REM seed 1404905928 -1785480340 -605879211 1809591086 392735641 1722401549 -1512715287 1270449841 1768866938 -358271346 -1412470453 1370295427
REM
REM S 3|1.8|5|6|7|30:31:32(qc=5)
REM O 2|1.5|12|13|15|20:21(qc=5)
REM Li 1|1.3|8|9|10|10U:20(qc=5)
REM Fe 3|2.2|2.0|1.0|8|9|10|40:41:32(qc=5)
REM Fe d:4.0 
REM
CELL 1.54180    6.30072    7.13804   18.96291   90.00000  144.59855   90.00000
LATT -1
SFAC Li O  S  Fe 
Li     1  0.5598700000000  0.3123440000000  0.2178320000000 1.0  -0.02
Li     1  0.0598700000000 -0.3123440000000  0.2178320000000 1.0  -0.02
Li     1  0.0710130000000  0.3371330000000  0.2253840000000 1.0  -0.02
Li     1 -0.4289870000000 -0.3371330000000  0.2253840000000 1.0  -0.02
Li     1 -0.4755980000000 -0.4109810000000 -0.2335890000000 1.0  -0.03
Li     1  0.0244020000000  0.4109810000000 -0.2335890000000 1.0  -0.03
Li     1 -0.3122640000000 -0.0487640000000 -0.5678780000000 1.0   0.00
Li     1  0.1877360000000  0.0487640000000 -0.5678780000000 1.0   0.00
O      2  0.3426360000000 -0.6106810000000 -0.0745990000000 1.0   0.16
O      2 -0.1573640000000  0.6106810000000 -0.0745990000000 1.0   0.16
O      2  0.2401380000000  0.4859410000000  0.1882090000000 1.0   0.13
O      2 -0.2598620000000 -0.4859410000000  0.1882090000000 1.0   0.13
S      3  0.0599170000000 -0.1785090000000 -0.3696380000000 1.0   0.12
S      3  0.5599170000000  0.1785090000000 -0.3696380000000 1.0   0.12
S      3  0.3426610000000 -0.1743570000000 -0.0779180000000 1.0   0.10
S      3 -0.1573390000000  0.1743570000000 -0.0779180000000 1.0   0.10
S      3 -0.4407010000000 -0.0126750000000  0.2732780000000 1.0   0.02
S      3  0.0592990000000  0.0126750000000  0.2732780000000 1.0   0.02
Fe     4 -0.4936770000000  0.0555790000000 -0.2692020000000 1.0   3.51
Fe     4  0.0063230000000 -0.0555790000000 -0.2692020000000 1.0   3.51
Fe     4  0.2631190000000  0.1355410000000 -0.0664770000000 1.0   3.69
Fe     4 -0.2368810000000 -0.1355410000000 -0.0664770000000 1.0   3.69
Fe     4  0.3401700000000 -0.4398740000000  0.0174190000000 1.0   3.84
Fe     4 -0.1598300000000  0.4398740000000  0.0174190000000 1.0   3.84
END
