TITL LFSO-Li2FeSO-201025-033320-71072b 0.0327 309.038207 -6.01134578E+003 12.0000 12.1663 15 (P32) n - 1
REM
REM Run started: Sun, 25 Oct 2020 05:50:36 +0000 in /lustre/scratch/uccabz1/launch_tmp/launcher_2020-10-25-03-33-18-489850
REM CASTEP 20.1 from code version af48c487+ pr-geom-scf-spinfix Tue Jun 2 15:39:59 2020 +0100
REM Functional Perdew Burke Ernzerhof Relativity Koelling-Harmon Dispersion off
REM Cut-off 340.0000 eV Grid scale 1.7500 Gmax 16.5316 1/A FBSC none
REM MP grid 3 3 2 Offset 0.000 0.000 0.000 No. kpts 5 Spacing 0.07
REM Total runtime: 10088.6 s
REM Overall efficiency: 68.1111 %
REM
REM
REM
REM compiler GCC version 4.9.2
REM options -cpp -iprefix /lustre/shared/ucl/apps/gcc/4.9.2/bin/../lib/gcc/x86_64-unknown-linux-gnu/4.9.2/ -mtune=corei7 -march=x86-64 -g -Og
REM COMMAND_LINE
REM seed -683692539 220704774 -1051215949 -613602921 347883858 699871497 595116455 1427127156 -936510507 1613713485 216247372 479437292
REM
REM S 3|1.8|5|6|7|30:31:32(qc=5)
REM O 2|1.5|12|13|15|20:21(qc=5)
REM Li 1|1.3|8|9|10|10U:20(qc=5)
REM Fe 3|2.2|2.0|1.0|8|9|10|40:41:32(qc=5)
REM Fe d:4.0 
REM
CELL 1.54180    6.44279    6.44279    8.59674   90.00000   90.00000  120.00000
LATT -1
SFAC Li O  S  Fe 
Li     1 -0.5224070000000 -0.1568030000000 -0.4250800000000 1.0  -0.05
Li     1  0.3656050000000  0.5224070000000 -0.0917470000000 1.0  -0.05
Li     1  0.1568030000000 -0.3656050000000  0.2415860000000 1.0  -0.05
Li     1 -0.2905500000000  0.2103610000000  0.3049400000000 1.0  -0.04
Li     1  0.5009110000000  0.2905500000000 -0.3617260000000 1.0  -0.04
Li     1 -0.2103610000000 -0.5009110000000 -0.0283930000000 1.0  -0.04
O      2 -0.3291950000000  0.1620510000000 -0.4679810000000 1.0   0.15
O      2  0.4912470000000  0.3291950000000 -0.1346480000000 1.0   0.15
O      2 -0.1620510000000 -0.4912470000000  0.1986850000000 1.0   0.15
S      3  0.1265880000000 -0.3255920000000 -0.2132440000000 1.0   0.11
S      3 -0.4521800000000 -0.1265880000000  0.1200900000000 1.0   0.11
S      3  0.3255920000000  0.4521800000000  0.4534230000000 1.0   0.11
Fe     4 -0.0184650000000  0.3752980000000 -0.4062400000000 1.0   3.82
Fe     4  0.3937630000000  0.0184650000000 -0.0729070000000 1.0   3.82
Fe     4 -0.3752980000000 -0.3937630000000  0.2604270000000 1.0   3.82
END
