TITL LFSO-LiFe3S4O-201028-155503-182f17 -0.0284 189.892481 -4.43762350E+003 10.9997 11.1582 9 (P-1) n - 1
REM
REM Run started: Wed, 28 Oct 2020 23:02:52 +0000 in /lustre/scratch/uccabz1/launch_tmp/launcher_2020-10-28-15-55-02-239124
REM CASTEP 20.1 from code version af48c487+ pr-geom-scf-spinfix Tue Jun 2 15:39:59 2020 +0100
REM Functional Perdew Burke Ernzerhof Relativity Koelling-Harmon Dispersion off
REM Cut-off 340.0000 eV Grid scale 1.7500 Gmax 16.5316 1/A FBSC none
REM MP grid 4 4 2 Offset 0.000 0.000 0.000 No. kpts 16 Spacing 0.07
REM Total runtime: 27305.6 s
REM Overall efficiency: 96.5833 %
REM
REM
REM
REM compiler GCC version 4.9.2
REM options -cpp -iprefix /lustre/shared/ucl/apps/gcc/4.9.2/bin/../lib/gcc/x86_64-unknown-linux-gnu/4.9.2/ -mtune=corei7 -march=x86-64 -g -Og
REM COMMAND_LINE
REM seed -758186537 -1785579881 194448138 2058891364 1822175932 1476190147 -1102089745 -369105138 2056082861 2111105481 -1771864742 1849714120
REM
REM S 3|1.8|5|6|7|30:31:32(qc=5)
REM O 2|1.5|12|13|15|20:21(qc=5)
REM Li 1|1.3|8|9|10|10U:20(qc=5)
REM Fe 3|2.2|2.0|1.0|8|9|10|40:41:32(qc=5)
REM Fe d:4.0 
REM
CELL 1.54180    4.10366    5.21672   10.12578  100.07149   95.97329   62.88179
LATT -1
SFAC Li O  S  Fe 
Li     1  0.0000000000000  0.0000000000000  0.0000000000000 1.0  -0.01
O      2  0.5000000000000  0.0000000000000 -0.5000000000000 1.0   0.25
S      3 -0.2731960000000  0.4400400000000 -0.2818000000000 1.0   0.03
S      3  0.2731960000000 -0.4400400000000  0.2818000000000 1.0   0.03
S      3 -0.4414480000000 -0.1616630000000 -0.1427360000000 1.0   0.01
S      3  0.4414480000000  0.1616630000000  0.1427360000000 1.0   0.01
Fe     4  0.3837200000000  0.1437900000000 -0.3180040000000 1.0   3.75
Fe     4 -0.3837200000000 -0.1437900000000  0.3180040000000 1.0   3.75
Fe     4 -0.5000000000000  0.5000000000000 -0.5000000000000 1.0   3.17
END
