TITL LFSO-Li4Fe2S3O-201026-203955-03c902 0.0006 213.970739 -3.87269543E+003 8.00000 8.10473 10 (R3) n - 1
REM
REM Run started: Mon, 26 Oct 2020 22:12:42 +0000 in /scratch/scratch/uccabz1/launch_tmp/launcher_2020-10-26-20-39-53-449909
REM CASTEP 19.11| from code version Version unavailable
REM Functional Perdew Burke Ernzerhof Relativity Koelling-Harmon Dispersion off
REM Cut-off 340.0000 eV Grid scale 1.7500 Gmax 16.5316 1/A FBSC none
REM MP grid 3 3 3 Offset 0.000 0.000 0.000 No. kpts 6 Spacing 0.07
REM Total runtime: 6238.39 s
REM Overall efficiency: 94.875 %
REM
REM
REM
REM compiler GCC version 4.9.2
REM options -cpp -iprefix /scratch/UCL/applications/gcc/4.9.2/bin/../lib/gcc/x86_64-unknown-linux-gnu/4.9.2/ -mtune=corei7 -march=x86-64 -g -O2
REM COMMAND_LINE
REM seed -1897924542 -58582573 -1470553222 -1702074934 743980970 2052973331 1589126364 -1955343051 -1757157582 1969301802 -1011255502 -1560336582
REM
REM S 3|1.8|5|6|7|30:31:32(qc=5)
REM O 2|1.5|12|13|15|20:21(qc=5)
REM Li 1|1.3|8|9|10|10U:20(qc=5)
REM Fe 3|2.2|2.0|1.0|8|9|10|40:41:32(qc=5)
REM Fe d:4.0 
REM
CELL 1.54180    6.08692    6.08692    6.08692   78.71913   78.71913   78.71913
LATT -1
SFAC Li O  S  Fe 
Li     1 -0.2369720000000  0.5412980000000 -0.0454740000000 1.0  -0.03
Li     1 -0.0454740000000 -0.2369720000000  0.5412980000000 1.0  -0.03
Li     1  0.5412980000000 -0.0454740000000 -0.2369720000000 1.0  -0.03
Li     1  0.5502900000000  0.5502900000000  0.5502900000000 1.0  -0.00
O      2 -0.3024950000000 -0.3024950000000 -0.3024950000000 1.0   0.01
S      3  0.2263040000000  0.2642930000000 -0.2731950000000 1.0   0.11
S      3 -0.2731950000000  0.2263040000000  0.2642930000000 1.0   0.11
S      3  0.2642930000000 -0.2731950000000  0.2263040000000 1.0   0.11
Fe     4  0.0483070000000  0.0483070000000  0.0483070000000 1.0   3.79
Fe     4  0.3131480000000  0.3131480000000  0.3131480000000 1.0   3.99
END
