TITL LFSO-Li6FeSO3-201028-043818-d93179 0.0196 166.796421 -3.67652351E+003 4.00000 4.20544 11 (I-4) n - 1
REM
REM Run started: Wed, 28 Oct 2020 05:28:05 +0000 in /scratch/scratch/uccabz1/launch_tmp/launcher_2020-10-28-04-38-17-274010
REM CASTEP 19.11| from code version Version unavailable
REM Functional Perdew Burke Ernzerhof Relativity Koelling-Harmon Dispersion off
REM Cut-off 340.0000 eV Grid scale 1.7500 Gmax 16.5316 1/A FBSC none
REM MP grid 4 3 3 Offset 0.000 0.000 0.000 No. kpts 18 Spacing 0.07
REM Total runtime: 3202.68 s
REM Overall efficiency: 93.4286 %
REM
REM
REM
REM compiler GCC version 4.9.2
REM options -cpp -iprefix /scratch/UCL/applications/gcc/4.9.2/bin/../lib/gcc/x86_64-unknown-linux-gnu/4.9.2/ -mtune=corei7 -march=x86-64 -g -O2
REM COMMAND_LINE
REM seed -35909624 -1591988504 -2782781 -1274563639 -1751005347 915101284 1788658477 -1607652390 461075051 -1848925044 -1868316014 -328955173
REM
REM S 3|1.8|5|6|7|30:31:32(qc=5)
REM O 2|1.5|12|13|15|20:21(qc=5)
REM Li 1|1.3|8|9|10|10U:20(qc=5)
REM Fe 3|2.2|2.0|1.0|8|9|10|40:41:32(qc=5)
REM Fe d:4.0 
REM
CELL 1.54180    6.12025    6.12025    6.12025   93.60883  117.93877  117.93877
LATT -1
SFAC Li O  S  Fe 
Li     1  0.4533360000000 -0.3070970000000 -0.2278140000000 1.0  -0.01
Li     1 -0.4533360000000 -0.6811500000000  0.2395670000000 1.0  -0.01
Li     1  0.0792830000000 -0.2395670000000  0.3070970000000 1.0  -0.01
Li     1 -0.0792830000000  0.2278140000000  0.6811500000000 1.0  -0.01
Li     1  0.0000000000000  0.2788160000000  0.2788160000000 1.0  -0.06
Li     1  0.0000000000000 -0.2788160000000 -0.2788160000000 1.0  -0.06
O      2 -0.5000000000000  0.0399710000000  0.5399710000000 1.0   0.24
O      2 -0.5000000000000 -0.5399710000000 -0.0399710000000 1.0   0.24
O      2  0.0000000000000 -0.5000000000000  0.5000000000000 1.0   0.00
S      3  0.0000000000000  0.0000000000000 -0.0000000000000 1.0   0.03
Fe     4 -0.5000000000000  0.2500000000000 -0.2500000000000 1.0   3.64
END
