TITL LFSO-Li2Fe2S2O-201022-023857-39bb3c -0.0210 481.233142 -9.50774054E+003 7.99998 23.3970 21 (P2) n - 1
REM
REM Run started: Sat, 24 Oct 2020 11:27:40 +0100 in /lustre/scratch/uccabz1/launch_tmp/launcher_2020-10-22-23-11-23-475126
REM CASTEP 20.1 from code version af48c487+ pr-geom-scf-spinfix Tue Jun 2 15:39:59 2020 +0100
REM Functional Perdew Burke Ernzerhof Relativity Koelling-Harmon Dispersion off
REM Cut-off 340.0000 eV Grid scale 1.7500 Gmax 16.5316 1/A FBSC none
REM MP grid 3 3 2 Offset 0.000 0.000 0.000 No. kpts 6 Spacing 0.07
REM Total runtime: 155514 s
REM Overall efficiency: 97.7692 %
REM
REM
REM
REM compiler GCC version 4.9.2
REM options -cpp -iprefix /lustre/shared/ucl/apps/gcc/4.9.2/bin/../lib/gcc/x86_64-unknown-linux-gnu/4.9.2/ -mtune=corei7 -march=x86-64 -g -Og
REM COMMAND_LINE
REM seed 2039876411 -1356337912 1525219485 -1343034156 -2103032823 1502606340 -2053315544 -1696955243 321772462 862183140 463173839 -1629283301
REM
REM S 3|1.8|5|6|7|30:31:32(qc=5)
REM O 2|1.5|12|13|15|20:21(qc=5)
REM Li 1|1.3|8|9|10|10U:20(qc=5)
REM Fe 3|2.2|2.0|1.0|8|9|10|40:41:32(qc=5)
REM Fe d:4.0 
REM
CELL 1.54180    5.92359    6.09628   13.58789   90.00000  101.26364   90.00000
LATT -1
SFAC Li O  S  Fe 
Li     1 -0.1750740000000 -0.2392740000000 -0.0686930000000 1.0  -0.05
Li     1  0.1750740000000 -0.2392740000000  0.0686930000000 1.0  -0.05
Li     1 -0.1727870000000 -0.0174540000000  0.4398310000000 1.0  -0.00
Li     1  0.1727870000000 -0.0174540000000 -0.4398310000000 1.0  -0.00
Li     1 -0.1931350000000 -0.0219040000000 -0.3173580000000 1.0  -0.01
Li     1  0.1931350000000 -0.0219040000000  0.3173580000000 1.0  -0.01
O      2 -0.1652760000000 -0.1364680000000 -0.4336290000000 1.0   0.16
O      2  0.1652760000000 -0.1364680000000  0.4336290000000 1.0   0.16
O      2  0.0000000000000 -0.0248240000000  0.0000000000000 1.0   0.24
S      3 -0.1430380000000  0.4496310000000  0.0871090000000 1.0   0.03
S      3  0.1430380000000  0.4496310000000 -0.0871090000000 1.0   0.03
S      3  0.1731800000000  0.3666010000000 -0.3857050000000 1.0   0.03
S      3 -0.1731800000000  0.3666010000000  0.3857050000000 1.0   0.03
S      3  0.5655580000000  0.0101010000000 -0.1984890000000 1.0  -0.04
S      3 -0.5655580000000  0.0101010000000  0.1984890000000 1.0  -0.04
Fe     4  0.2946790000000  0.2880270000000 -0.2136900000000 1.0  -3.75
Fe     4 -0.2946790000000  0.2880270000000  0.2136900000000 1.0  -3.75
Fe     4  0.1740050000000 -0.4334560000000  0.4551670000000 1.0   3.73
Fe     4 -0.1740050000000 -0.4334560000000 -0.4551670000000 1.0   3.73
Fe     4 -0.2052150000000  0.2090520000000 -0.0662380000000 1.0   3.79
Fe     4  0.2052150000000  0.2090520000000  0.0662380000000 1.0   3.79
END
