TITL LFSO-Li5FeSO3-201026-130332-df397c 0.0481 246.034053 -6.95927166E+003 6.81516 7.28811 20 (P21) n - 1
REM
REM Run started: Mon, 26 Oct 2020 15:48:35 +0000 in /lustre/scratch/uccabz1/launch_tmp/launcher_2020-10-26-13-03-25-166423
REM CASTEP 20.1 from code version af48c487+ pr-geom-scf-spinfix Tue Jun 2 15:39:59 2020 +0100
REM Functional Perdew Burke Ernzerhof Relativity Koelling-Harmon Dispersion off
REM Cut-off 340.0000 eV Grid scale 1.7500 Gmax 16.5316 1/A FBSC none
REM MP grid 5 2 2 Offset 0.000 0.000 0.000 No. kpts 5 Spacing 0.07
REM Total runtime: 10072.9 s
REM Overall efficiency: 73.2222 %
REM
REM
REM
REM compiler GCC version 4.9.2
REM options -cpp -iprefix /lustre/shared/ucl/apps/gcc/4.9.2/bin/../lib/gcc/x86_64-unknown-linux-gnu/4.9.2/ -mtune=corei7 -march=x86-64 -g -Og
REM COMMAND_LINE
REM seed 1494221605 -10045498 1060543440 -305963080 -466783960 757733251 -126647278 -443254605 -713323981 -2112389628 -582510060 612230777
REM
REM S 3|1.8|5|6|7|30:31:32(qc=5)
REM O 2|1.5|12|13|15|20:21(qc=5)
REM Li 1|1.3|8|9|10|10U:20(qc=5)
REM Fe 3|2.2|2.0|1.0|8|9|10|40:41:32(qc=5)
REM Fe d:4.0 
REM
CELL 1.54180    3.00472    7.35802   11.33575   90.00000   79.02205   90.00000
LATT -1
SFAC Li O  S  Fe 
Li     1  0.5287560000000  0.1859790000000  0.3926740000000 1.0  -0.01
Li     1 -0.5287560000000 -0.3140210000000 -0.3926740000000 1.0  -0.01
Li     1  0.0289940000000 -0.4624440000000 -0.0756470000000 1.0  -0.04
Li     1 -0.0289940000000  0.0375560000000  0.0756470000000 1.0  -0.04
Li     1 -0.2899250000000 -0.3621900000000  0.3752810000000 1.0   0.01
Li     1  0.2899250000000  0.1378100000000 -0.3752810000000 1.0   0.01
Li     1  0.0324060000000  0.2201020000000 -0.1431570000000 1.0  -0.02
Li     1 -0.0324060000000 -0.2798980000000  0.1431570000000 1.0  -0.02
Li     1 -0.0345860000000  0.4155120000000  0.5429780000000 1.0  -0.00
Li     1  0.0345860000000 -0.0844880000000 -0.5429780000000 1.0  -0.00
O      2 -0.0745350000000  0.1673410000000  0.5040150000000 1.0  -0.00
O      2  0.0745350000000 -0.3326590000000 -0.5040150000000 1.0  -0.00
O      2  0.1585120000000 -0.0118060000000 -0.2240790000000 1.0  -0.00
O      2 -0.1585120000000  0.4881940000000  0.2240790000000 1.0  -0.00
O      2 -0.0278390000000  0.2974910000000  0.0300910000000 1.0  -0.01
O      2  0.0278390000000 -0.2025090000000 -0.0300910000000 1.0  -0.01
S      3 -0.3917950000000 -0.5523010000000 -0.2399820000000 1.0  -0.01
S      3  0.3917950000000 -0.0523010000000  0.2399820000000 1.0  -0.01
Fe     4  0.5964360000000 -0.1201710000000 -0.1359540000000 1.0   3.50
Fe     4 -0.5964360000000  0.3798290000000  0.1359540000000 1.0   3.50
END
