TITL LFSO-Li3FeS2O-201023-033647-f5d6fb -0.0211 653.865276 -7.51933140E+003 9.00248 12.8543 21 (Pm) n - 1
REM
REM Run started: Sat, 24 Oct 2020 00:21:52 +0100 in /lustre/scratch/uccabz1/launch_tmp/launcher_2020-10-23-02-36-45-863907
REM CASTEP 20.1 from code version af48c487+ pr-geom-scf-spinfix Tue Jun 2 15:39:59 2020 +0100
REM Functional Perdew Burke Ernzerhof Relativity Koelling-Harmon Dispersion off
REM Cut-off 340.0000 eV Grid scale 1.7500 Gmax 16.5316 1/A FBSC none
REM MP grid 3 2 2 Offset 0.000 0.000 0.000 No. kpts 3 Spacing 0.07
REM Total runtime: 79814.7 s
REM Overall efficiency: 76.1667 %
REM
REM
REM
REM compiler GCC version 4.9.2
REM options -cpp -iprefix /lustre/shared/ucl/apps/gcc/4.9.2/bin/../lib/gcc/x86_64-unknown-linux-gnu/4.9.2/ -mtune=corei7 -march=x86-64 -g -Og
REM COMMAND_LINE
REM seed 725932610 -730525587 376624429 -393879203 2073410432 -1932720895 -1837094470 617634690 86566332 -1265314601 -1642409927 -2009317055
REM
REM S 3|1.8|5|6|7|30:31:32(qc=5)
REM O 2|1.5|12|13|15|20:21(qc=5)
REM Li 1|1.3|8|9|10|10U:20(qc=5)
REM Fe 3|2.2|2.0|1.0|8|9|10|40:41:32(qc=5)
REM Fe d:4.0 
REM
CELL 1.54180    6.23562   11.98629   10.50052   90.00000  123.57832   90.00000
LATT -1
SFAC Li O  S  Fe 
Li     1  0.4715100000000 -0.2779340000000  0.0540060000000 1.0  -0.01
Li     1  0.4715100000000  0.2779340000000  0.0540060000000 1.0  -0.01
Li     1 -0.7289290000000  0.3760930000000  0.3220070000000 1.0   0.02
Li     1 -0.7289290000000 -0.3760930000000  0.3220070000000 1.0   0.02
Li     1 -0.0195580000000 -0.3819220000000  0.4060530000000 1.0  -0.02
Li     1 -0.0195580000000  0.3819220000000  0.4060530000000 1.0  -0.02
Li     1 -0.1017180000000  0.2946960000000 -0.0450570000000 1.0   0.02
Li     1 -0.1017180000000 -0.2946960000000 -0.0450570000000 1.0   0.02
Li     1  0.1518400000000  0.5000000000000 -0.0348600000000 1.0  -0.04
O      2  0.1637730000000  0.3497420000000 -0.0602080000000 1.0   0.11
O      2  0.1637730000000 -0.3497420000000 -0.0602080000000 1.0   0.11
O      2  0.1831240000000  0.5000000000000  0.4035720000000 1.0   0.11
S      3 -0.0920700000000  0.2701940000000  0.1827420000000 1.0  -0.38
S      3 -0.0920700000000 -0.2701940000000  0.1827420000000 1.0  -0.38
S      3 -0.2840570000000  0.3651360000000 -0.4783470000000 1.0  -0.33
S      3 -0.2840570000000 -0.3651360000000 -0.4783470000000 1.0  -0.33
S      3  0.4706610000000  0.3513130000000 -0.2650310000000 1.0  -0.30
S      3  0.4706610000000 -0.3513130000000 -0.2650310000000 1.0  -0.30
Fe     4  0.1158710000000 -0.3470640000000 -0.2518070000000 1.0   3.66
Fe     4  0.1158710000000  0.3470640000000 -0.2518070000000 1.0   3.66
Fe     4 -0.4876030000000 -0.5000000000000 -0.4028540000000 1.0   3.42
END
