TITL LFSO-Li4Fe3S4O-201029-191443-2d09eb -0.0066 628.454478 -1.00754280E+004 24.0000 24.4521 24 (Ima2) n - 1
REM
REM Run started: Fri, 30 Oct 2020 12:45:04 +0000 in /lustre/scratch/uccabz1/launch_tmp/launcher_2020-10-29-19-14-41-568153
REM CASTEP 20.1 from code version af48c487+ pr-geom-scf-spinfix Tue Jun 2 15:39:59 2020 +0100
REM Functional Perdew Burke Ernzerhof Relativity Koelling-Harmon Dispersion off
REM Cut-off 340.0000 eV Grid scale 1.7500 Gmax 16.5316 1/A FBSC none
REM MP grid 2 3 3 Offset 0.000 0.000 0.000 No. kpts 6 Spacing 0.07
REM Total runtime: 65215.9 s
REM Overall efficiency: 71.3077 %
REM
REM
REM
REM compiler GCC version 4.9.2
REM options -cpp -iprefix /lustre/shared/ucl/apps/gcc/4.9.2/bin/../lib/gcc/x86_64-unknown-linux-gnu/4.9.2/ -mtune=corei7 -march=x86-64 -g -Og
REM COMMAND_LINE
REM seed -1701001045 688432647 326855112 488437597 -1337198011 658707557 2061453226 1877960792 -1822152965 224474171 361475246 701745375
REM
REM S 3|1.8|5|6|7|30:31:32(qc=5)
REM O 2|1.5|12|13|15|20:21(qc=5)
REM Li 1|1.3|8|9|10|10U:20(qc=5)
REM Fe 3|2.2|2.0|1.0|8|9|10|40:41:32(qc=5)
REM Fe d:4.0 
REM
CELL 1.54180   13.24232   10.35786   10.35786   36.76346   50.26485   50.26485
LATT -1
SFAC Li O  S  Fe 
Li     1  0.3302210000000 -0.0750250000000  0.4955490000000 1.0   0.01
Li     1  0.2492550000000  0.4955490000000 -0.0750250000000 1.0   0.01
Li     1 -0.1697790000000  0.4955490000000 -0.0750250000000 1.0   0.01
Li     1 -0.2507450000000 -0.0750250000000  0.4955490000000 1.0   0.01
Li     1  0.1685430000000  0.0275970000000 -0.2004720000000 1.0  -0.03
Li     1  0.0043330000000 -0.2004720000000  0.0275970000000 1.0  -0.03
Li     1 -0.3314570000000 -0.2004720000000  0.0275970000000 1.0  -0.03
Li     1  0.5043330000000  0.0275970000000 -0.2004720000000 1.0  -0.03
O      2  0.2687340000000  0.6237540000000 -0.6612210000000 1.0   0.25
O      2 -0.2312660000000 -0.6612210000000  0.6237540000000 1.0   0.25
S      3  0.0906340000000  0.0184780000000 -0.3675740000000 1.0   0.09
S      3  0.2584610000000 -0.3675740000000  0.0184780000000 1.0   0.09
S      3 -0.4093660000000 -0.3675740000000  0.0184780000000 1.0   0.09
S      3 -0.2415390000000  0.0184780000000 -0.3675740000000 1.0   0.09
S      3  0.3847980000000  0.3196890000000 -0.2115120000000 1.0   0.13
S      3  0.5070250000000 -0.2115120000000  0.3196890000000 1.0   0.13
S      3 -0.1152020000000 -0.2115120000000  0.3196890000000 1.0   0.13
S      3  0.0070250000000  0.3196890000000 -0.2115120000000 1.0   0.13
Fe     4  0.3838330000000 -0.3796680000000  0.4020800000000 1.0   3.81
Fe     4 -0.4062440000000  0.4020800000000 -0.3796680000000 1.0   3.81
Fe     4 -0.1161670000000  0.4020800000000 -0.3796680000000 1.0   3.81
Fe     4  0.0937560000000 -0.3796680000000  0.4020800000000 1.0   3.81
Fe     4 -0.1054690000000  0.1105860000000  0.6003520000000 1.0   3.73
Fe     4  0.3945310000000  0.6003520000000  0.1105860000000 1.0   3.73
END
