TITL LFSO-Li6FeSO3-201028-070844-360064 -0.0174 179.263764 -3.67899674E+003 4.00000 4.16858 11 (P3) n - 1
REM
REM Run started: Wed, 28 Oct 2020 07:37:49 +0000 in /scratch/scratch/uccabz1/launch_tmp/launcher_2020-10-28-07-08-43-048151
REM CASTEP 19.11| from code version Version unavailable
REM Functional Perdew Burke Ernzerhof Relativity Koelling-Harmon Dispersion off
REM Cut-off 340.0000 eV Grid scale 1.7500 Gmax 16.5316 1/A FBSC none
REM MP grid 3 3 3 Offset 0.000 0.000 0.000 No. kpts 8 Spacing 0.07
REM Total runtime: 1948.09 s
REM Overall efficiency: 80.1429 %
REM
REM
REM
REM compiler GCC version 4.9.2
REM options -cpp -iprefix /scratch/UCL/applications/gcc/4.9.2/bin/../lib/gcc/x86_64-unknown-linux-gnu/4.9.2/ -mtune=corei7 -march=x86-64 -g -O2
REM COMMAND_LINE
REM seed -526740798 210969648 566155317 -661747615 528120073 1407735880 1927310600 -1143525448 -603616685 1754707643 -1722019567 -470877194
REM
REM S 3|1.8|5|6|7|30:31:32(qc=5)
REM O 2|1.5|12|13|15|20:21(qc=5)
REM Li 1|1.3|8|9|10|10U:20(qc=5)
REM Fe 3|2.2|2.0|1.0|8|9|10|40:41:32(qc=5)
REM Fe d:4.0 
REM
CELL 1.54180    5.48672    6.14221    6.14221  120.00000   90.00000   90.00000
LATT -1
SFAC Li O  S  Fe 
Li     1  0.5191390000000  0.4698160000000 -0.0376920000000 1.0  -0.01
Li     1  0.5191390000000  0.0376920000000  0.5075080000000 1.0  -0.01
Li     1  0.5191390000000 -0.5075080000000 -0.4698160000000 1.0  -0.01
Li     1 -0.0789550000000  0.0377450000000  0.5075330000000 1.0  -0.01
Li     1 -0.0789550000000 -0.5075330000000 -0.4697890000000 1.0  -0.01
Li     1 -0.0789550000000  0.4697890000000 -0.0377450000000 1.0  -0.01
O      2 -0.2725770000000  0.1707160000000 -0.1928760000000 1.0   0.09
O      2 -0.2725770000000  0.1928760000000  0.3635920000000 1.0   0.09
O      2 -0.2725770000000 -0.3635920000000 -0.1707160000000 1.0   0.09
S      3  0.2302870000000 -0.3333330000000  0.3333330000000 1.0   0.00
Fe     4  0.7326400000000  0.0000000000000 -0.0000000000000 1.0   3.80
END
