TITL LFSO-Li2Fe4S4O-201025-010448-2db6ed 0.0454 284.564865 -5.50013717E+003 8.00000 15.8838 11 (R3m) n - 1
REM
REM Run started: Sun, 25 Oct 2020 03:43:30 +0000 in /scratch/scratch/uccabz1/launch_tmp/launcher_2020-10-25-00-04-46-046447
REM CASTEP 19.11| from code version Version unavailable
REM Functional Perdew Burke Ernzerhof Relativity Koelling-Harmon Dispersion off
REM Cut-off 340.0000 eV Grid scale 1.7500 Gmax 16.5316 1/A FBSC none
REM MP grid 3 3 3 Offset 0.000 0.000 0.000 No. kpts 6 Spacing 0.07
REM Total runtime: 14193.4 s
REM Overall efficiency: 77.5833 %
REM
REM
REM
REM compiler GCC version 4.9.2
REM options -cpp -iprefix /scratch/UCL/applications/gcc/4.9.2/bin/../lib/gcc/x86_64-unknown-linux-gnu/4.9.2/ -mtune=corei7 -march=x86-64 -g -O2
REM COMMAND_LINE
REM seed 761380906 -924192307 -1284126335 295765594 -1392595566 1257201678 -1073535804 1921125749 195487796 -1621072179 610573249 984223864
REM
REM S 3|1.8|5|6|7|30:31:32(qc=5)
REM O 2|1.5|12|13|15|20:21(qc=5)
REM Li 1|1.3|8|9|10|10U:20(qc=5)
REM Fe 3|2.2|2.0|1.0|8|9|10|40:41:32(qc=5)
REM Fe d:4.0 
REM
CELL 1.54180    7.31654    7.31654    7.45124   60.59627   60.59627   60.00000
LATT -1
SFAC Li O  S  Fe 
Li     1  0.5180590000000  0.5180590000000 -0.5541760000000 1.0  -0.12
Li     1 -0.3414400000000 -0.3414400000000  0.0243200000000 1.0   0.05
O      2  0.1153190000000  0.1153190000000 -0.3459580000000 1.0   0.28
S      3  0.4156890000000 -0.0973960000000  0.2711860000000 1.0   0.00
S      3 -0.0973960000000 -0.5894790000000  0.2711860000000 1.0   0.00
S      3 -0.5894790000000  0.4156890000000  0.2711860000000 1.0   0.00
S      3 -0.2076090000000 -0.2076090000000 -0.3771720000000 1.0  -0.03
Fe     4  0.4472900000000  0.0159330000000  0.5214500000000 1.0   3.87
Fe     4  0.0159330000000  0.0153270000000  0.5214500000000 1.0   3.87
Fe     4  0.0153270000000  0.4472900000000  0.5214500000000 1.0   3.87
Fe     4  0.2872990000000  0.2872990000000  0.1381040000000 1.0  -3.79
END
