TITL LFSO-Li3FeS2O-201025-005804-81a672 -0.0450 310.912597 -5.01439267E+003 6.00000 7.35163 14 (P21) n - 1
REM
REM Run started: Sun, 25 Oct 2020 03:22:51 +0000 in /lustre/scratch/uccabz1/launch_tmp/launcher_2020-10-24-23-58-01-638481
REM CASTEP 20.1 from code version af48c487+ pr-geom-scf-spinfix Tue Jun 2 15:39:59 2020 +0100
REM Functional Perdew Burke Ernzerhof Relativity Koelling-Harmon Dispersion off
REM Cut-off 340.0000 eV Grid scale 1.7500 Gmax 16.5316 1/A FBSC none
REM MP grid 3 2 3 Offset 0.000 0.000 0.000 No. kpts 6 Spacing 0.07
REM Total runtime: 14384.5 s
REM Overall efficiency: 88.25 %
REM
REM
REM
REM compiler GCC version 4.9.2
REM options -cpp -iprefix /lustre/shared/ucl/apps/gcc/4.9.2/bin/../lib/gcc/x86_64-unknown-linux-gnu/4.9.2/ -mtune=corei7 -march=x86-64 -g -Og
REM COMMAND_LINE
REM seed -623367901 -1852854027 -216480923 -1728445660 1837797262 1199009172 1112857347 61892245 -230652859 -1534182659 -916463743 1001779607
REM
REM S 3|1.8|5|6|7|30:31:32(qc=5)
REM O 2|1.5|12|13|15|20:21(qc=5)
REM Li 1|1.3|8|9|10|10U:20(qc=5)
REM Fe 3|2.2|2.0|1.0|8|9|10|40:41:32(qc=5)
REM Fe d:4.0 
REM
CELL 1.54180    7.67109    6.93044    5.87713   84.31033   90.00000   90.00000
LATT -1
SFAC Li O  S  Fe 
Li     1  0.4428400000000 -0.1293760000000  0.3069040000000 1.0   0.00
Li     1 -0.0571600000000  0.1293760000000 -0.3069040000000 1.0   0.00
Li     1 -0.1636100000000 -0.2858510000000  0.2920450000000 1.0   0.01
Li     1  0.3363900000000  0.2858510000000 -0.2920450000000 1.0   0.01
Li     1 -0.4533400000000 -0.5176480000000  0.3034660000000 1.0  -0.00
Li     1  0.0466600000000  0.5176480000000 -0.3034660000000 1.0  -0.00
O      2 -0.3899000000000 -0.2719760000000  0.1548430000000 1.0   0.02
O      2  0.1101000000000  0.2719760000000 -0.1548430000000 1.0   0.02
S      3 -0.1504290000000 -0.1959980000000 -0.3088940000000 1.0  -0.14
S      3  0.3495710000000  0.1959980000000  0.3088940000000 1.0  -0.14
S      3  0.3917510000000 -0.3701690000000 -0.3800470000000 1.0  -0.12
S      3 -0.1082490000000  0.3701690000000  0.3800470000000 1.0  -0.12
Fe     4  0.0927550000000  0.2753310000000  0.1457000000000 1.0   3.23
Fe     4 -0.4072450000000 -0.2753310000000 -0.1457000000000 1.0   3.23
END
