TITL LFSO-Li2Fe2S2O-201022-061558-2248ee -0.6011 131.271750 -3.16935363E+003 7.99999 8.05538 7 (P2) n - 1
REM
REM Run started: Thu, 22 Oct 2020 08:17:43 +0100 in /scratch/scratch/uccabz1/launch_tmp/launcher_2020-10-22-05-15-56-962937
REM CASTEP 19.11| from code version Version unavailable
REM Functional Perdew Burke Ernzerhof Relativity Koelling-Harmon Dispersion off
REM Cut-off 340.0000 eV Grid scale 1.7500 Gmax 16.5316 1/A FBSC none
REM MP grid 3 3 4 Offset 0.000 0.000 0.000 No. kpts 10 Spacing 0.07
REM Total runtime: 7777.17 s
REM Overall efficiency: 86.6923 %
REM
REM
REM
REM compiler GCC version 4.9.2
REM options -cpp -iprefix /scratch/UCL/applications/gcc/4.9.2/bin/../lib/gcc/x86_64-unknown-linux-gnu/4.9.2/ -mtune=corei7 -march=x86-64 -g -O2
REM COMMAND_LINE
REM seed 990074940 1562929057 -1290983219 1121980319 2053710124 -1826975571 690043971 639939664 159807142 427909404 1562172160 608750278
REM
REM S 3|1.8|5|6|7|30:31:32(qc=5)
REM O 2|1.5|12|13|15|20:21(qc=5)
REM Li 1|1.3|8|9|10|10U:20(qc=5)
REM Fe 3|2.2|2.0|1.0|8|9|10|40:41:32(qc=5)
REM Fe d:4.0 
REM
CELL 1.54180    5.85224    6.57795    4.06468   90.00000   90.00000   57.02855
LATT -1
SFAC Li O  S  Fe 
Li     1  0.1307670000000 -0.3318130000000  0.4815540000000 1.0  -0.02
Li     1 -0.1307670000000  0.3318130000000  0.4815540000000 1.0  -0.02
O      2 -0.5000000000000  0.5000000000000  0.6468600000000 1.0   0.11
S      3  0.1442420000000  0.1855690000000 -0.0228440000000 1.0   0.12
S      3 -0.1442420000000 -0.1855690000000 -0.0228440000000 1.0   0.12
Fe     4  0.4825530000000 -0.2265060000000 -0.1277610000000 1.0   3.84
Fe     4 -0.4825530000000  0.2265060000000 -0.1277610000000 1.0   3.84
END
