TITL LFSO-Li6FeSO3-201028-065512-ab96fa 0.0018 146.521927 -3.67874613E+003 4.00000 4.09543 11 (Cm) n - 1
REM
REM Run started: Wed, 28 Oct 2020 08:25:05 +0000 in /scratch/scratch/uccabz1/launch_tmp/launcher_2020-10-28-06-55-10-707394
REM CASTEP 19.11| from code version Version unavailable
REM Functional Perdew Burke Ernzerhof Relativity Koelling-Harmon Dispersion off
REM Cut-off 340.0000 eV Grid scale 1.7500 Gmax 16.5316 1/A FBSC none
REM MP grid 5 3 3 Offset 0.000 0.000 0.000 No. kpts 16 Spacing 0.07
REM Total runtime: 6362.76 s
REM Overall efficiency: 95.5 %
REM
REM
REM
REM compiler GCC version 4.9.2
REM options -cpp -iprefix /scratch/UCL/applications/gcc/4.9.2/bin/../lib/gcc/x86_64-unknown-linux-gnu/4.9.2/ -mtune=corei7 -march=x86-64 -g -O2
REM COMMAND_LINE
REM seed -766309248 1582992750 -394577209 394906321 -1589972752 411162763 1782546134 -1336271002 1947500486 -945456229 -490094104 963739156
REM
REM S 3|1.8|5|6|7|30:31:32(qc=5)
REM O 2|1.5|12|13|15|20:21(qc=5)
REM Li 1|1.3|8|9|10|10U:20(qc=5)
REM Fe 3|2.2|2.0|1.0|8|9|10|40:41:32(qc=5)
REM Fe d:4.0 
REM
CELL 1.54180    6.02153    6.86096    6.86096   62.02198   45.98034   45.98034
LATT -1
SFAC Li O  S  Fe 
Li     1 -0.2173450000000 -0.3443210000000 -0.0057210000000 1.0  -0.02
Li     1 -0.2173450000000 -0.0057210000000 -0.3443210000000 1.0  -0.02
Li     1  0.1111620000000  0.3189000000000 -0.3257380000000 1.0   0.00
Li     1  0.1111620000000 -0.3257380000000  0.3189000000000 1.0   0.00
Li     1 -0.4885570000000 -0.1226050000000  0.4845540000000 1.0  -0.02
Li     1 -0.4885570000000  0.4845540000000 -0.1226050000000 1.0  -0.02
O      2 -0.0171490000000 -0.3666790000000  0.1468730000000 1.0   0.13
O      2 -0.0171490000000  0.1468730000000 -0.3666790000000 1.0   0.13
O      2 -0.2323400000000 -0.2959800000000 -0.2959800000000 1.0   0.01
S      3 -0.2599080000000  0.2405890000000  0.2405890000000 1.0   0.11
Fe     4 -0.0365400000000  0.3338230000000  0.3338230000000 1.0   3.72
END
