TITL LFSO-Li6FeS3O-201027-134817-5e1943 -0.1089 533.536968 -6.81991380E+003 8.00000 8.22201 22 (Pma2) n - 1
REM
REM Run started: Tue, 27 Oct 2020 18:34:01 +0000 in /lustre/scratch/uccabz1/launch_tmp/launcher_2020-10-27-13-48-15-523864
REM CASTEP 20.1 from code version af48c487+ pr-geom-scf-spinfix Tue Jun 2 15:39:59 2020 +0100
REM Functional Perdew Burke Ernzerhof Relativity Koelling-Harmon Dispersion off
REM Cut-off 340.0000 eV Grid scale 1.7500 Gmax 16.5316 1/A FBSC none
REM MP grid 2 4 2 Offset 0.000 0.000 0.000 No. kpts 4 Spacing 0.07
REM Total runtime: 18430.7 s
REM Overall efficiency: 76.1667 %
REM
REM
REM
REM compiler GCC version 4.9.2
REM options -cpp -iprefix /lustre/shared/ucl/apps/gcc/4.9.2/bin/../lib/gcc/x86_64-unknown-linux-gnu/4.9.2/ -mtune=corei7 -march=x86-64 -g -Og
REM COMMAND_LINE
REM seed -116317230 1392117561 173452162 1732090079 1720873383 104692426 1856552434 -218645677 841976880 1130193252 302546486 -1939935785
REM
REM S 3|1.8|5|6|7|30:31:32(qc=5)
REM O 2|1.5|12|13|15|20:21(qc=5)
REM Li 1|1.3|8|9|10|10U:20(qc=5)
REM Fe 3|2.2|2.0|1.0|8|9|10|40:41:32(qc=5)
REM Fe d:4.0 
REM
CELL 1.54180   10.15601    3.93302   13.35722   90.00000   90.00000   89.90377
LATT -1
SFAC Li O  S  Fe 
Li     1  0.1537210000000  0.7391800000000 -0.0884940000000 1.0  -0.01
Li     1 -0.1537210000000 -0.7391800000000 -0.0884940000000 1.0  -0.01
Li     1 -0.2626630000000  0.2515650000000  0.1247280000000 1.0  -0.05
Li     1  0.2626630000000 -0.2515650000000  0.1247280000000 1.0  -0.05
Li     1 -0.3104220000000  0.2496700000000  0.3588710000000 1.0   0.02
Li     1  0.3104220000000 -0.2496700000000  0.3588710000000 1.0   0.02
Li     1 -0.4163690000000  0.2502030000000  0.5618980000000 1.0   0.00
Li     1  0.4163690000000 -0.2502030000000  0.5618980000000 1.0   0.00
Li     1 -0.1852660000000 -0.2402360000000 -0.3728650000000 1.0  -0.00
Li     1  0.1852660000000  0.2402360000000 -0.3728650000000 1.0  -0.00
Li     1  0.3658210000000  0.2485370000000 -0.2621460000000 1.0   0.00
Li     1 -0.3658210000000 -0.2485370000000 -0.2621460000000 1.0   0.00
O      2 -0.1033520000000  0.2513750000000  0.0458250000000 1.0   0.16
O      2  0.1033520000000 -0.2513750000000  0.0458250000000 1.0   0.16
S      3  0.2691240000000  0.2483090000000  0.2180330000000 1.0   0.11
S      3 -0.2691240000000 -0.2483090000000  0.2180330000000 1.0   0.11
S      3  0.3410160000000  0.2499090000000  0.5066210000000 1.0   0.00
S      3 -0.3410160000000 -0.2499090000000  0.5066210000000 1.0   0.00
S      3 -0.2471210000000  0.2516560000000 -0.2504760000000 1.0   0.00
S      3  0.2471210000000 -0.2516560000000 -0.2504760000000 1.0   0.00
Fe     4 -0.1009420000000 -0.2487260000000  0.0989110000000 1.0   3.77
Fe     4  0.1009420000000  0.2487260000000  0.0989110000000 1.0   3.77
END
