TITL LFSO-Li2Fe3S3O-201025-092259-724a73 -0.0400 254.946481 -4.33321713E+003 10.0017 10.6595 9 (Pmm2) n - 1
REM
REM Run started: Sun, 25 Oct 2020 10:19:19 +0000 in /lustre/scratch/uccabz1/launch_tmp/launcher_2020-10-25-09-22-58-351585
REM CASTEP 20.1 from code version af48c487+ pr-geom-scf-spinfix Tue Jun 2 15:39:59 2020 +0100
REM Functional Perdew Burke Ernzerhof Relativity Koelling-Harmon Dispersion off
REM Cut-off 340.0000 eV Grid scale 1.7500 Gmax 16.5316 1/A FBSC none
REM MP grid 4 2 3 Offset 0.000 0.000 0.000 No. kpts 4 Spacing 0.07
REM Total runtime: 3619.39 s
REM Overall efficiency: 83.8571 %
REM
REM
REM
REM compiler GCC version 4.9.2
REM options -cpp -iprefix /lustre/shared/ucl/apps/gcc/4.9.2/bin/../lib/gcc/x86_64-unknown-linux-gnu/4.9.2/ -mtune=corei7 -march=x86-64 -g -Og
REM COMMAND_LINE
REM seed 1516113821 1375517886 -1696655068 1574822642 -2036386682 -255994381 -1674330547 -1429655491 -1387234385 -167808240 -668214801 2012824210
REM
REM S 3|1.8|5|6|7|30:31:32(qc=5)
REM O 2|1.5|12|13|15|20:21(qc=5)
REM Li 1|1.3|8|9|10|10U:20(qc=5)
REM Fe 3|2.2|2.0|1.0|8|9|10|40:41:32(qc=5)
REM Fe d:4.0 
REM
CELL 1.54180    4.73453    7.82448    6.88203   90.00000   90.00000   90.00000
LATT -1
SFAC Li O  S  Fe 
Li     1  0.0000000000000 -0.2586620000000 -0.3606480000000 1.0  -0.06
Li     1  0.0000000000000  0.2586620000000 -0.3606480000000 1.0  -0.06
O      2  0.5000000000000 -0.5000000000000  0.2082040000000 1.0   0.12
S      3  0.5000000000000 -0.2748280000000 -0.3575390000000 1.0   0.01
S      3  0.5000000000000  0.2748280000000 -0.3575390000000 1.0   0.01
S      3 -0.5000000000000  0.0000000000000  0.2037580000000 1.0  -0.11
Fe     4  0.5000000000000 -0.2829410000000  0.3042530000000 1.0   3.52
Fe     4  0.5000000000000  0.2829410000000  0.3042530000000 1.0   3.52
Fe     4  0.5000000000000  0.0000000000000  0.5457140000000 1.0   3.06
END
