TITL LFSO-Li2Fe3S2O2-201024-025822-e627c8 -0.0185 326.350728 -8.93225460E+003 21.5812 22.0302 18 (P3) n - 1
REM
REM Run started: Sat, 24 Oct 2020 04:26:33 +0100 in /lustre/scratch/uccabz1/launch_tmp/launcher_2020-10-24-01-58-21-086533
REM CASTEP 20.1 from code version af48c487+ pr-geom-scf-spinfix Tue Jun 2 15:39:59 2020 +0100
REM Functional Perdew Burke Ernzerhof Relativity Koelling-Harmon Dispersion off
REM Cut-off 340.0000 eV Grid scale 1.7500 Gmax 16.5316 1/A FBSC none
REM MP grid 2 3 3 Offset 0.000 0.000 0.000 No. kpts 5 Spacing 0.07
REM Total runtime: 5424.54 s
REM Overall efficiency: 78 %
REM
REM
REM
REM compiler GCC version 4.9.2
REM options -cpp -iprefix /lustre/shared/ucl/apps/gcc/4.9.2/bin/../lib/gcc/x86_64-unknown-linux-gnu/4.9.2/ -mtune=corei7 -march=x86-64 -g -Og
REM COMMAND_LINE
REM seed 1095685078 -1251836261 1663698763 -2000529309 1231016999 -40568934 249724852 -751349850 353436884 -1800847082 -1035083895 822730451
REM
REM S 3|1.8|5|6|7|30:31:32(qc=5)
REM O 2|1.5|12|13|15|20:21(qc=5)
REM Li 1|1.3|8|9|10|10U:20(qc=5)
REM Fe 3|2.2|2.0|1.0|8|9|10|40:41:32(qc=5)
REM Fe d:4.0 
REM
CELL 1.54180    7.72902    6.98256    6.98256  120.00000   90.00000   90.00000
LATT -1
SFAC Li O  S  Fe 
Li     1 -0.4128270000000 -0.2270370000000 -0.2734280000000 1.0  -0.04
Li     1 -0.4128270000000 -0.0463910000000  0.2270370000000 1.0  -0.04
Li     1 -0.4128270000000  0.2734280000000  0.0463910000000 1.0  -0.04
Li     1 -0.4331690000000  0.3333330000000 -0.3333330000000 1.0  -0.16
O      2  0.4262520000000  0.1677530000000  0.3856210000000 1.0   0.18
O      2  0.4262520000000  0.2178680000000 -0.1677530000000 1.0   0.18
O      2  0.4262520000000 -0.3856210000000 -0.2178680000000 1.0   0.18
O      2  0.3303450000000 -0.3333330000000  0.3333330000000 1.0   0.10
S      3 -0.1238550000000 -0.1722840000000  0.1288580000000 1.0   0.04
S      3 -0.1238550000000  0.3011420000000  0.1722840000000 1.0   0.04
S      3 -0.1238550000000 -0.1288580000000 -0.3011420000000 1.0   0.04
S      3 -0.1866100000000 -0.3333330000000  0.3333330000000 1.0   0.09
Fe     4 -0.0652190000000  0.1779840000000  0.4201570000000 1.0   3.17
Fe     4 -0.0652190000000  0.2421730000000 -0.1779840000000 1.0   3.17
Fe     4 -0.0652190000000 -0.4201570000000 -0.2421730000000 1.0   3.17
Fe     4  0.3332310000000  0.0033760000000  0.5340840000000 1.0   3.84
Fe     4  0.3332310000000  0.5307080000000 -0.0033760000000 1.0   3.84
Fe     4  0.3332310000000 -0.5340840000000 -0.5307080000000 1.0   3.84
END
