TITL LFSO-Li5FeSO3-201026-222131-132152 -0.0540 226.971166 -6.95869083E+003 9.98783 10.0460 20 (C2) n - 1
REM
REM Run started: Tue, 27 Oct 2020 17:17:35 +0000 in /lustre/scratch/uccabz1/launch_tmp/launcher_2020-10-26-22-22-27-945534
REM CASTEP 20.1 from code version af48c487+ pr-geom-scf-spinfix Tue Jun 2 15:39:59 2020 +0100
REM Functional Perdew Burke Ernzerhof Relativity Koelling-Harmon Dispersion off
REM Cut-off 340.0000 eV Grid scale 1.7500 Gmax 16.5316 1/A FBSC none
REM MP grid 4 6 2 Offset 0.000 0.000 0.000 No. kpts 24 Spacing 0.07
REM Total runtime: 47006.8 s
REM Overall efficiency: 83.4615 %
REM
REM
REM
REM compiler GCC version 4.9.2
REM options -cpp -iprefix /scratch/UCL/applications/gcc/4.9.2/bin/../lib/gcc/x86_64-unknown-linux-gnu/4.9.2/ -mtune=corei7 -march=x86-64 -g -O2
REM COMMAND_LINE
REM seed 2100397548 -1393904183 1264482211 -920024228 675570489 -2096825926 1764466949 -1761128151 994545193 1307231239 1435997354 44433996
REM
REM S 3|1.8|5|6|7|30:31:32(qc=5)
REM O 2|1.5|12|13|15|20:21(qc=5)
REM Li 1|1.3|8|9|10|10U:20(qc=5)
REM Fe 3|2.2|2.0|1.0|8|9|10|40:41:32(qc=5)
REM Fe d:4.0 
REM
CELL 1.54180   11.38216    6.24715    9.14071   61.00654   57.85452   24.35784
LATT -1
SFAC Li O  S  Fe 
Li     1 -0.3290850000000 -0.0200000000000 -0.5644900000000 1.0  -0.04
Li     1  0.3490850000000 -0.0200000000000  0.5644900000000 1.0  -0.04
Li     1  0.1977810000000 -0.0244870000000  0.4583140000000 1.0  -0.00
Li     1 -0.1732940000000 -0.0244870000000 -0.4583140000000 1.0  -0.00
Li     1  0.6059160000000  0.0931750000000 -0.1641650000000 1.0  -0.01
Li     1  0.3009090000000  0.0931750000000  0.1641650000000 1.0  -0.01
Li     1  0.0717600000000  0.2688150000000  0.0174290000000 1.0  -0.03
Li     1 -0.3405750000000  0.2688150000000 -0.0174290000000 1.0  -0.03
Li     1 -0.1435200000000  0.0317030000000  0.1784730000000 1.0   0.02
Li     1  0.1118170000000  0.0317030000000 -0.1784730000000 1.0   0.02
O      2  0.4452700000000  0.5249150000000  0.2625180000000 1.0   0.21
O      2  0.0298150000000  0.5249150000000 -0.2625180000000 1.0   0.21
O      2  0.3965150000000 -0.4651560000000 -0.3579460000000 1.0   0.18
O      2  0.0686400000000 -0.4651560000000  0.3579460000000 1.0   0.18
O      2  0.0683640000000 -0.4055690000000 -0.0005100000000 1.0   0.30
O      2  0.3372050000000 -0.4055690000000  0.0005100000000 1.0   0.30
S      3 -0.2831370000000 -0.4461790000000 -0.2828470000000 1.0   0.26
S      3 -0.2706850000000 -0.4461790000000  0.2828470000000 1.0   0.26
Fe     4  0.2150550000000 -0.5212380000000 -0.2409160000000 1.0   4.10
Fe     4  0.3061830000000 -0.5212380000000  0.2409160000000 1.0   4.10
END
