TITL LFSO-Li2Fe2S2O-201022-034643-9a9f11 -0.0204 121.652967 -3.16798703E+003 7.71684 7.81814 7 (R3m) n - 1
REM
REM Run started: Thu, 22 Oct 2020 06:11:36 +0100 in /scratch/scratch/uccabz1/launch_tmp/launcher_2020-10-22-02-46-41-893598
REM CASTEP 19.11| from code version Version unavailable
REM Functional Perdew Burke Ernzerhof Relativity Koelling-Harmon Dispersion off
REM Cut-off 340.0000 eV Grid scale 1.7500 Gmax 16.5316 1/A FBSC none
REM MP grid 5 5 2 Offset 0.000 0.000 0.000 No. kpts 15 Spacing 0.07
REM Total runtime: 9593.65 s
REM Overall efficiency: 77.7778 %
REM
REM
REM
REM compiler GCC version 4.9.2
REM options -cpp -iprefix /scratch/UCL/applications/gcc/4.9.2/bin/../lib/gcc/x86_64-unknown-linux-gnu/4.9.2/ -mtune=corei7 -march=x86-64 -g -O2
REM COMMAND_LINE
REM seed 1647311515 1188129465 2054494601 258333805 1754168470 1832561484 -440411569 -960463476 -477746207 121931274 163995129 -935676245
REM
REM S 3|1.8|5|6|7|30:31:32(qc=5)
REM O 2|1.5|12|13|15|20:21(qc=5)
REM Li 1|1.3|8|9|10|10U:20(qc=5)
REM Fe 3|2.2|2.0|1.0|8|9|10|40:41:32(qc=5)
REM Fe d:4.0 
REM
CELL 1.54180    3.77108    3.77108   10.11489   79.25654   79.25654   60.00000
LATT -1
SFAC Li O  S  Fe 
Li     1 -0.1692060000000 -0.1692060000000 -0.4923830000000 1.0  -0.06
Li     1  0.1018740000000  0.1018740000000 -0.3056220000000 1.0  -0.04
O      2 -0.1015040000000 -0.1015040000000  0.3045120000000 1.0   0.11
S      3 -0.3046320000000 -0.3046320000000 -0.0861030000000 1.0   0.17
S      3  0.4701510000000  0.4701510000000 -0.4104550000000 1.0   0.09
Fe     4  0.3526250000000  0.3526250000000 -0.0578740000000 1.0   3.48
Fe     4  0.2302360000000  0.2302360000000  0.3092900000000 1.0   3.97
END
