TITL LFSO-Li5FeS2O2-201026-015035-5e5d38 0.0202 292.870582 -6.69093944E+003 8.00002 8.52816 20 (P3) n - 1
REM
REM Run started: Mon, 26 Oct 2020 03:58:45 +0000 in /lustre/scratch/uccabz1/launch_tmp/launcher_2020-10-26-01-50-33-346575
REM CASTEP 20.1 from code version af48c487+ pr-geom-scf-spinfix Tue Jun 2 15:39:59 2020 +0100
REM Functional Perdew Burke Ernzerhof Relativity Koelling-Harmon Dispersion off
REM Cut-off 340.0000 eV Grid scale 1.7500 Gmax 16.5316 1/A FBSC none
REM MP grid 4 2 2 Offset 0.000 0.000 0.000 No. kpts 8 Spacing 0.07
REM Total runtime: 8655.52 s
REM Overall efficiency: 92.8333 %
REM
REM
REM
REM compiler GCC version 4.9.2
REM options -cpp -iprefix /lustre/shared/ucl/apps/gcc/4.9.2/bin/../lib/gcc/x86_64-unknown-linux-gnu/4.9.2/ -mtune=corei7 -march=x86-64 -g -Og
REM COMMAND_LINE
REM seed 1103821228 311354726 1741691131 147566411 1943772754 1142535557 -671610427 -228781832 1926409193 762276665 915522039 1795176097
REM
REM S 3|1.8|5|6|7|30:31:32(qc=5)
REM O 2|1.5|12|13|15|20:21(qc=5)
REM Li 1|1.3|8|9|10|10U:20(qc=5)
REM Fe 3|2.2|2.0|1.0|8|9|10|40:41:32(qc=5)
REM Fe d:4.0 
REM
CELL 1.54180    4.08815    9.09514    9.09514  120.00000   90.00000   90.00000
LATT -1
SFAC Li O  S  Fe 
Li     1 -0.3022120000000  0.2238700000000  0.0417310000000 1.0  -0.03
Li     1 -0.3022120000000 -0.0417310000000  0.1821400000000 1.0  -0.03
Li     1 -0.3022120000000 -0.1821400000000 -0.2238700000000 1.0  -0.03
Li     1  0.1915610000000  0.0917870000000 -0.2617730000000 1.0   0.01
Li     1  0.1915610000000  0.2617730000000  0.3535600000000 1.0   0.01
Li     1  0.1915610000000 -0.3535600000000 -0.0917870000000 1.0   0.01
Li     1  0.1933530000000 -0.5882150000000 -0.0054930000000 1.0   0.00
Li     1  0.1933530000000  0.0054930000000 -0.5827220000000 1.0   0.00
Li     1  0.1933530000000  0.5827220000000  0.5882150000000 1.0   0.00
Li     1 -0.3076500000000  0.3333330000000 -0.3333330000000 1.0   0.02
O      2  0.2026670000000 -0.2212100000000 -0.1991330000000 1.0   0.19
O      2  0.2026670000000  0.1991330000000 -0.0220770000000 1.0   0.19
O      2  0.2026670000000  0.0220770000000  0.2212100000000 1.0   0.19
O      2 -0.2960370000000  0.0000000000000 -0.0000000000000 1.0   0.02
S      3 -0.3038730000000 -0.0545570000000 -0.4577080000000 1.0  -0.01
S      3 -0.3038730000000  0.4577080000000  0.4031510000000 1.0  -0.01
S      3 -0.3038730000000 -0.4031510000000  0.0545570000000 1.0  -0.01
S      3  0.1928160000000  0.3333330000000 -0.3333330000000 1.0  -0.09
Fe     4  0.2032670000000  0.0000000000000 -0.0000000000000 1.0   3.91
Fe     4  0.6888860000000 -0.3333330000000  0.3333330000000 1.0   3.64
END
