TITL LFSO-Li2Fe3S2O2-201024-014808-b347c0 -0.0300 180.320130 -4.46251854E+003 10.9467 11.3021 9 (C222) n - 1
REM
REM Run started: Sat, 24 Oct 2020 02:10:25 +0100 in /lustre/scratch/uccabz1/launch_tmp/launcher_2020-10-24-00-48-06-974780
REM CASTEP 20.1 from code version af48c487+ pr-geom-scf-spinfix Tue Jun 2 15:39:59 2020 +0100
REM Functional Perdew Burke Ernzerhof Relativity Koelling-Harmon Dispersion off
REM Cut-off 340.0000 eV Grid scale 1.7500 Gmax 16.5316 1/A FBSC none
REM MP grid 4 3 2 Offset 0.000 0.000 0.000 No. kpts 6 Spacing 0.07
REM Total runtime: 1561.35 s
REM Overall efficiency: 75 %
REM
REM
REM
REM compiler GCC version 4.9.2
REM options -cpp -iprefix /lustre/shared/ucl/apps/gcc/4.9.2/bin/../lib/gcc/x86_64-unknown-linux-gnu/4.9.2/ -mtune=corei7 -march=x86-64 -g -Og
REM COMMAND_LINE
REM seed -1333553653 -2105600127 1277873704 1623136361 531424667 104877967 1271570869 -1664384338 1830285449 -865046106 1919613754 -1545026860
REM
REM S 3|1.8|5|6|7|30:31:32(qc=5)
REM O 2|1.5|12|13|15|20:21(qc=5)
REM Li 1|1.3|8|9|10|10U:20(qc=5)
REM Fe 3|2.2|2.0|1.0|8|9|10|40:41:32(qc=5)
REM Fe d:4.0 
REM
CELL 1.54180    3.82139    5.17344    9.81494   90.00000   90.00000  111.67408
LATT -1
SFAC Li O  S  Fe 
Li     1 -0.1743490000000 -0.3486980000000 -0.0000000000000 1.0  -0.05
Li     1  0.1743490000000  0.3486980000000 -0.0000000000000 1.0  -0.05
O      2  0.3521600000000 -0.2956800000000  0.5000000000000 1.0   0.10
O      2 -0.3521600000000  0.2956800000000 -0.5000000000000 1.0   0.10
S      3  0.0000000000000  0.5000000000000 -0.1841800000000 1.0   0.17
S      3 -0.5000000000000 -0.5000000000000  0.1841800000000 1.0   0.17
Fe     4 -0.1427240000000 -0.2854480000000  0.5000000000000 1.0   3.63
Fe     4  0.1427240000000  0.2854480000000  0.5000000000000 1.0   3.63
Fe     4  0.5000000000000 -0.0000000000000 -0.0000000000000 1.0   3.27
END
