TITL LFSO-Li6FeSO3-201028-070011-bc1282 0.0707 306.053087 -7.35849851E+003 8.00000 8.18621 22 (R3) n - 1
REM
REM Run started: Wed, 28 Oct 2020 13:41:35 +0000 in /lustre/scratch/uccabz1/launch_tmp/launcher_2020-10-28-07-00-09-906382
REM CASTEP 20.1 from code version af48c487+ pr-geom-scf-spinfix Tue Jun 2 15:39:59 2020 +0100
REM Functional Perdew Burke Ernzerhof Relativity Koelling-Harmon Dispersion off
REM Cut-off 340.0000 eV Grid scale 1.7500 Gmax 16.5316 1/A FBSC none
REM MP grid 3 3 3 Offset 0.000 0.000 0.000 No. kpts 6 Spacing 0.07
REM Total runtime: 27296 s
REM Overall efficiency: 70.4615 %
REM
REM
REM
REM compiler GCC version 4.9.2
REM options -cpp -iprefix /lustre/shared/ucl/apps/gcc/4.9.2/bin/../lib/gcc/x86_64-unknown-linux-gnu/4.9.2/ -mtune=corei7 -march=x86-64 -g -Og
REM COMMAND_LINE
REM seed -1917321436 -1303071082 1065063045 821951280 1798789339 482202608 113897435 -1017102157 -1150684424 -1740487073 -1795347716 1753032274
REM
REM S 3|1.8|5|6|7|30:31:32(qc=5)
REM O 2|1.5|12|13|15|20:21(qc=5)
REM Li 1|1.3|8|9|10|10U:20(qc=5)
REM Fe 3|2.2|2.0|1.0|8|9|10|40:41:32(qc=5)
REM Fe d:4.0 
REM
CELL 1.54180    9.57659    9.57659    9.57659   38.51809   38.51809   38.51809
LATT -1
SFAC Li O  S  Fe 
Li     1  0.5248310000000 -0.1197430000000  0.1116650000000 1.0  -0.02
Li     1 -0.1197430000000  0.1116650000000  0.5248310000000 1.0  -0.02
Li     1  0.1116650000000  0.5248310000000 -0.1197430000000 1.0  -0.02
Li     1 -0.3684430000000  0.3130260000000 -0.1659010000000 1.0  -0.01
Li     1  0.3130260000000 -0.1659010000000 -0.3684430000000 1.0  -0.01
Li     1 -0.1659010000000 -0.3684430000000  0.3130260000000 1.0  -0.01
Li     1 -0.1883470000000  0.3785900000000  0.0230650000000 1.0  -0.02
Li     1  0.3785900000000  0.0230650000000 -0.1883470000000 1.0  -0.02
Li     1  0.0230650000000 -0.1883470000000  0.3785900000000 1.0  -0.02
Li     1  0.2217550000000 -0.3187640000000  0.0417680000000 1.0  -0.01
Li     1 -0.3187640000000  0.0417680000000  0.2217550000000 1.0  -0.01
Li     1  0.0417680000000  0.2217550000000 -0.3187640000000 1.0  -0.01
O      2 -0.2755610000000  0.3366980000000 -0.0598500000000 1.0   0.12
O      2  0.3366980000000 -0.0598500000000 -0.2755610000000 1.0   0.12
O      2 -0.0598500000000 -0.2755610000000  0.3366980000000 1.0   0.12
O      2 -0.0707220000000  0.2568320000000  0.5406140000000 1.0   0.12
O      2  0.2568320000000  0.5406140000000 -0.0707220000000 1.0   0.12
O      2  0.5406140000000 -0.0707220000000  0.2568320000000 1.0   0.12
S      3 -0.2149470000000 -0.2149470000000 -0.2149470000000 1.0   0.00
S      3  0.1267140000000  0.1267140000000  0.1267140000000 1.0   0.00
Fe     4  0.2391120000000  0.2391120000000  0.2391120000000 1.0   3.74
Fe     4 -0.3268560000000 -0.3268560000000 -0.3268560000000 1.0   3.77
END
