TITL LFSO-Li2Fe4S3O2-201025-184503-42fc67 0.1513 366.558820 -1.12708957E+004 -16.0000 30.7867 22 (Cc) n - 1
REM
REM Run started: Tue, 27 Oct 2020 06:24:31 +0000 in /scratch/scratch/uccabz1/launch_tmp/launcher_2020-10-27-04-25-23-792095
REM CASTEP 19.11| from code version Version unavailable
REM Functional Perdew Burke Ernzerhof Relativity Koelling-Harmon Dispersion off
REM Cut-off 340.0000 eV Grid scale 1.7500 Gmax 16.5316 1/A FBSC none
REM MP grid 3 2 3 Offset 0.000 0.000 0.000 No. kpts 9 Spacing 0.07
REM Total runtime: 129975 s
REM Overall efficiency: 76.9286 %
REM
REM
REM
REM compiler GCC version 4.9.2
REM options -cpp -iprefix /scratch/UCL/applications/gcc/4.9.2/bin/../lib/gcc/x86_64-unknown-linux-gnu/4.9.2/ -mtune=corei7 -march=x86-64 -g -O2
REM COMMAND_LINE
REM seed 310512687 -1471034861 916156557 -1730211288 -1442085206 -887327366 1861751664 -1068172254 684485545 906352810 277955336 -180643543
REM
REM S 3|1.8|5|6|7|30:31:32(qc=5)
REM O 2|1.5|12|13|15|20:21(qc=5)
REM Li 1|1.3|8|9|10|10U:20(qc=5)
REM Fe 3|2.2|2.0|1.0|8|9|10|40:41:32(qc=5)
REM Fe d:4.0 
REM
CELL 1.54180    6.01271   10.41662    7.84819  131.57748   93.38735   90.00000
LATT -1
SFAC Li O  S  Fe 
Li     1 -0.2645430000000 -0.0065820000000  0.4515060000000 1.0   0.02
Li     1  0.2354570000000  0.4580880000000  0.4515060000000 1.0   0.02
Li     1 -0.2345920000000 -0.4329100000000  0.0752970000000 1.0   0.01
Li     1  0.2654080000000  0.5082070000000  0.0752970000000 1.0   0.01
O      2 -0.3266210000000 -0.0598560000000 -0.3680480000000 1.0  -0.04
O      2  0.1733790000000 -0.3081910000000 -0.3680480000000 1.0  -0.04
O      2  0.0156660000000  0.3018870000000  0.4264080000000 1.0  -0.20
O      2 -0.4843340000000  0.1245210000000  0.4264080000000 1.0  -0.20
S      3 -0.3977910000000 -0.5009190000000  0.2833500000000 1.0  -0.02
S      3  0.1022090000000 -0.2157310000000  0.2833500000000 1.0  -0.02
S      3 -0.2039400000000 -0.1585200000000 -0.0605090000000 1.0  -0.11
S      3  0.2960600000000  0.0980110000000 -0.0605090000000 1.0  -0.11
S      3 -0.0549880000000  0.2946240000000 -0.1858780000000 1.0  -0.02
S      3  0.4450120000000  0.5194980000000 -0.1858780000000 1.0  -0.02
Fe     4 -0.0979560000000 -0.2295460000000 -0.4379020000000 1.0  -3.79
Fe     4  0.4020440000000 -0.2083570000000 -0.4379020000000 1.0  -3.79
Fe     4  0.2355040000000  0.2315640000000 -0.4258240000000 1.0  -3.81
Fe     4 -0.2644960000000  0.3426120000000 -0.4258240000000 1.0  -3.81
Fe     4 -0.3458630000000  0.1955980000000 -0.0859280000000 1.0   3.73
Fe     4  0.1541370000000 -0.2815260000000 -0.0859280000000 1.0   3.73
Fe     4 -0.0135950000000  0.1018040000000  0.1104930000000 1.0  -3.78
Fe     4  0.4864050000000  0.0086880000000  0.1104930000000 1.0  -3.78
END
