TITL LFSO-Li3FeS2O-201025-062937-d2f05d 0.0313 207.610897 -2.50632552E+003 3.57132 4.08679 7 (Pm) n - 1
REM
REM Run started: Sun, 25 Oct 2020 08:03:52 +0000 in /lustre/scratch/uccabz1/launch_tmp/launcher_2020-10-25-06-29-36-298698
REM CASTEP 20.1 from code version af48c487+ pr-geom-scf-spinfix Tue Jun 2 15:39:59 2020 +0100
REM Functional Perdew Burke Ernzerhof Relativity Koelling-Harmon Dispersion off
REM Cut-off 340.0000 eV Grid scale 1.7500 Gmax 16.5316 1/A FBSC none
REM MP grid 7 1 4 Offset 0.000 0.000 0.000 No. kpts 14 Spacing 0.07
REM Total runtime: 7057.95 s
REM Overall efficiency: 88.0769 %
REM
REM
REM
REM compiler GCC version 4.9.2
REM options -cpp -iprefix /lustre/shared/ucl/apps/gcc/4.9.2/bin/../lib/gcc/x86_64-unknown-linux-gnu/4.9.2/ -mtune=corei7 -march=x86-64 -g -Og
REM COMMAND_LINE
REM seed -1350893394 -2091027332 931247909 -1403361577 827264326 900164127 -391856372 2128564529 922558516 1558611573 291853158 496619433
REM
REM S 3|1.8|5|6|7|30:31:32(qc=5)
REM O 2|1.5|12|13|15|20:21(qc=5)
REM Li 1|1.3|8|9|10|10U:20(qc=5)
REM Fe 3|2.2|2.0|1.0|8|9|10|40:41:32(qc=5)
REM Fe d:4.0 
REM
CELL 1.54180    3.22582   13.93081    6.36149   90.00000  133.42856   90.00000
LATT -1
SFAC Li O  S  Fe 
Li     1 -0.4665220000000  0.3550850000000 -0.0346960000000 1.0  -0.01
Li     1 -0.4665220000000 -0.3550850000000 -0.0346960000000 1.0  -0.01
Li     1  0.3798270000000  0.5000000000000  0.2431630000000 1.0  -0.04
O      2 -0.4724680000000 -0.5000000000000 -0.0148680000000 1.0   0.14
S      3 -0.5430170000000  0.3452660000000 -0.4745260000000 1.0  -0.11
S      3 -0.5430170000000 -0.3452660000000 -0.4745260000000 1.0  -0.11
Fe     4 -0.3318320000000  0.5000000000000 -0.2807510000000 1.0   3.71
END
