TITL LFSO-Li4Fe3S3O2-201029-072807-3a8225 0.0664 687.710472 -1.03463769E+004 -24.0000 24.8433 24 (R3) n - 1
REM
REM Run started: Thu, 29 Oct 2020 23:04:23 +0000 in /lustre/scratch/uccabz1/launch_tmp/launcher_2020-10-29-07-28-05-604046
REM CASTEP 20.1 from code version af48c487+ pr-geom-scf-spinfix Tue Jun 2 15:39:59 2020 +0100
REM Functional Perdew Burke Ernzerhof Relativity Koelling-Harmon Dispersion off
REM Cut-off 340.0000 eV Grid scale 1.7500 Gmax 16.5316 1/A FBSC none
REM MP grid 2 2 2 Offset 0.000 0.000 0.000 No. kpts 2 Spacing 0.07
REM Total runtime: 63234.9 s
REM Overall efficiency: 81.5833 %
REM
REM
REM
REM compiler GCC version 4.9.2
REM options -cpp -iprefix /lustre/shared/ucl/apps/gcc/4.9.2/bin/../lib/gcc/x86_64-unknown-linux-gnu/4.9.2/ -mtune=corei7 -march=x86-64 -g -Og
REM COMMAND_LINE
REM seed -644295010 -1701001045 1049626946 -1220849988 -1378079519 565664939 -1645777044 -199568364 -442046506 1413143004 1219804199 84485360
REM
REM S 3|1.8|5|6|7|30:31:32(qc=5)
REM O 2|1.5|12|13|15|20:21(qc=5)
REM Li 1|1.3|8|9|10|10U:20(qc=5)
REM Fe 3|2.2|2.0|1.0|8|9|10|40:41:32(qc=5)
REM Fe d:4.0 
REM
CELL 1.54180   12.19691   12.19691   12.19691   40.41458   40.41458   40.41458
LATT -1
SFAC Li O  S  Fe 
Li     1  0.0004820000000  0.3637950000000 -0.0560570000000 1.0   0.00
Li     1 -0.0560570000000  0.0004820000000  0.3637950000000 1.0   0.00
Li     1  0.3637950000000 -0.0560570000000  0.0004820000000 1.0   0.00
Li     1  0.5634020000000  0.3188820000000 -0.1384950000000 1.0   0.01
Li     1 -0.1384950000000  0.5634020000000  0.3188820000000 1.0   0.01
Li     1  0.3188820000000 -0.1384950000000  0.5634020000000 1.0   0.01
Li     1 -0.2702150000000 -0.2702150000000 -0.2702150000000 1.0   0.05
Li     1  0.6119830000000  0.6119830000000  0.6119830000000 1.0   0.04
O      2  0.4903190000000 -0.2683780000000 -0.0343200000000 1.0  -0.17
O      2 -0.0343200000000  0.4903190000000 -0.2683780000000 1.0  -0.17
O      2 -0.2683780000000 -0.0343200000000  0.4903190000000 1.0  -0.17
O      2 -0.3311850000000 -0.3311850000000 -0.3311850000000 1.0  -0.31
S      3  0.3413200000000  0.2554040000000 -0.2214750000000 1.0  -0.14
S      3 -0.2214750000000  0.3413200000000  0.2554040000000 1.0  -0.14
S      3  0.2554040000000 -0.2214750000000  0.3413200000000 1.0  -0.14
S      3 -0.1275120000000  0.3158590000000 -0.3879390000000 1.0  -0.04
S      3 -0.3879390000000 -0.1275120000000  0.3158590000000 1.0  -0.04
S      3  0.3158590000000 -0.3879390000000 -0.1275120000000 1.0  -0.04
Fe     4 -0.3328980000000 -0.0953020000000  0.4357520000000 1.0  -3.86
Fe     4  0.4357520000000 -0.3328980000000 -0.0953020000000 1.0  -3.86
Fe     4 -0.0953020000000  0.4357520000000 -0.3328980000000 1.0  -3.86
Fe     4 -0.4761090000000 -0.4165620000000  0.1829040000000 1.0  -3.73
Fe     4  0.1829040000000 -0.4761090000000 -0.4165620000000 1.0  -3.73
Fe     4 -0.4165620000000  0.1829040000000 -0.4761090000000 1.0  -3.73
END
