TITL LFSO-Li2FeSO-201024-193041-372218 -0.0577 166.670403 -4.00474999E+003 8.00000 8.21979 10 (R3) n - 1
REM
REM Run started: Sat, 24 Oct 2020 19:57:04 +0100 in /lustre/scratch/uccabz1/launch_tmp/launcher_2020-10-24-18-30-39-759645
REM CASTEP 20.1 from code version af48c487+ pr-geom-scf-spinfix Tue Jun 2 15:39:59 2020 +0100
REM Functional Perdew Burke Ernzerhof Relativity Koelling-Harmon Dispersion off
REM Cut-off 340.0000 eV Grid scale 1.7500 Gmax 16.5316 1/A FBSC none
REM MP grid 3 3 3 Offset 0.000 0.000 0.000 No. kpts 6 Spacing 0.07
REM Total runtime: 1605.34 s
REM Overall efficiency: 75.3333 %
REM
REM
REM
REM compiler GCC version 4.9.2
REM options -cpp -iprefix /lustre/shared/ucl/apps/gcc/4.9.2/bin/../lib/gcc/x86_64-unknown-linux-gnu/4.9.2/ -mtune=corei7 -march=x86-64 -g -Og
REM COMMAND_LINE
REM seed -1921918792 -1087461208 2082875259 -1593838102 1600809424 2066447378 -775992825 -1406233207 -1146210129 146256471 -706097768 1560221786
REM
REM S 3|1.8|5|6|7|30:31:32(qc=5)
REM O 2|1.5|12|13|15|20:21(qc=5)
REM Li 1|1.3|8|9|10|10U:20(qc=5)
REM Fe 3|2.2|2.0|1.0|8|9|10|40:41:32(qc=5)
REM Fe d:4.0 
REM
CELL 1.54180    6.16358    6.16358    6.19089   60.14581   60.14581   60.00000
LATT -1
SFAC Li O  S  Fe 
Li     1 -0.2759900000000  0.1148310000000  0.5285880000000 1.0  -0.04
Li     1  0.1148310000000 -0.3674290000000  0.5285880000000 1.0  -0.04
Li     1 -0.3674290000000 -0.2759900000000  0.5285880000000 1.0  -0.04
Li     1  0.3733940000000  0.3733940000000 -1.1201830000000 1.0  -0.03
O      2  0.4959580000000  0.4959580000000 -1.4878730000000 1.0   0.08
O      2 -0.2555020000000 -0.2555020000000  0.7665060000000 1.0   0.11
S      3 -0.0553440000000 -0.0553440000000  0.1660330000000 1.0   0.16
S      3  0.2220150000000  0.2220150000000 -0.6660460000000 1.0   0.23
Fe     4 -0.3774230000000 -0.3774230000000  1.1322690000000 1.0   3.92
Fe     4  0.0834450000000  0.0834450000000 -0.2503350000000 1.0   3.65
END
