TITL LFSO-Li5FeSO3-201026-203122-3ff798 -0.0428 162.619383 -3.47622378E+003 1.00000 1.71113 10 (P3) n - 1
REM
REM Run started: Mon, 26 Oct 2020 21:35:55 +0000 in /lustre/scratch/uccabz1/launch_tmp/launcher_2020-10-26-20-31-20-882338
REM CASTEP 20.1 from code version af48c487+ pr-geom-scf-spinfix Tue Jun 2 15:39:59 2020 +0100
REM Functional Perdew Burke Ernzerhof Relativity Koelling-Harmon Dispersion off
REM Cut-off 340.0000 eV Grid scale 1.7500 Gmax 16.5316 1/A FBSC none
REM MP grid 4 4 3 Offset 0.000 0.000 0.000 No. kpts 24 Spacing 0.07
REM Total runtime: 4491.6 s
REM Overall efficiency: 77 %
REM
REM
REM
REM compiler GCC version 4.9.2
REM options -cpp -iprefix /lustre/shared/ucl/apps/gcc/4.9.2/bin/../lib/gcc/x86_64-unknown-linux-gnu/4.9.2/ -mtune=corei7 -march=x86-64 -g -Og
REM COMMAND_LINE
REM seed -1552730020 554858517 -561532969 -60190351 -1395142034 1612900334 1243927409 628337117 779363671 1463217459 -1549257026 1340571087
REM
REM S 3|1.8|5|6|7|30:31:32(qc=5)
REM O 2|1.5|12|13|15|20:21(qc=5)
REM Li 1|1.3|8|9|10|10U:20(qc=5)
REM Fe 3|2.2|2.0|1.0|8|9|10|40:41:32(qc=5)
REM Fe d:4.0 
REM
CELL 1.54180    5.21566    5.21566    6.90276   90.00000   90.00000  120.00000
LATT -1
SFAC Li O  S  Fe 
Li     1  0.3720330000000  0.4023760000000 -0.2011270000000 1.0  -0.01
Li     1  0.0303420000000 -0.3720330000000 -0.2011270000000 1.0  -0.01
Li     1 -0.4023760000000 -0.0303420000000 -0.2011270000000 1.0  -0.01
Li     1 -0.0000000000000  0.0000000000000  0.4185950000000 1.0  -0.01
Li     1  0.3333330000000 -0.3333330000000  0.1479090000000 1.0  -0.01
O      2  0.0277530000000  0.3366280000000 -0.0365220000000 1.0  -0.01
O      2  0.3088750000000 -0.0277530000000 -0.0365220000000 1.0  -0.01
O      2 -0.3366280000000 -0.3088750000000 -0.0365220000000 1.0  -0.01
S      3  0.3333330000000 -0.3333330000000  0.5129040000000 1.0   0.01
Fe     4 -0.0000000000000  0.0000000000000  0.0194550000000 1.0   1.06
END
