TITL LFSO-Li4Fe3S3O2-201029-023519-50666c -0.0219 431.702840 -1.03437399E+004 19.9999 20.6499 24 (P21/c) n - 1
REM
REM Run started: Thu, 29 Oct 2020 10:50:44 +0000 in /scratch/scratch/uccabz1/launch_tmp/launcher_2020-10-29-02-35-17-493868
REM CASTEP 19.11| from code version Version unavailable
REM Functional Perdew Burke Ernzerhof Relativity Koelling-Harmon Dispersion off
REM Cut-off 340.0000 eV Grid scale 1.7500 Gmax 16.5316 1/A FBSC none
REM MP grid 3 2 2 Offset 0.000 0.000 0.000 No. kpts 3 Spacing 0.07
REM Total runtime: 31090.8 s
REM Overall efficiency: 78 %
REM
REM
REM
REM compiler GCC version 4.9.2
REM options -cpp -iprefix /scratch/UCL/applications/gcc/4.9.2/bin/../lib/gcc/x86_64-unknown-linux-gnu/4.9.2/ -mtune=corei7 -march=x86-64 -g -O2
REM COMMAND_LINE
REM seed 436438858 -1774156994 -1966976631 1660029745 -429434964 366370143 -878266260 1334639005 -449807345 262874788 1693499475 -1145220002
REM
REM S 3|1.8|5|6|7|30:31:32(qc=5)
REM O 2|1.5|12|13|15|20:21(qc=5)
REM Li 1|1.3|8|9|10|10U:20(qc=5)
REM Fe 3|2.2|2.0|1.0|8|9|10|40:41:32(qc=5)
REM Fe d:4.0 
REM
CELL 1.54180    6.07501    9.80062    7.27904   90.00000   95.05124   90.00000
LATT -1
SFAC Li O  S  Fe 
Li     1  0.2054790000000  0.0487450000000 -0.2853400000000 1.0  -0.04
Li     1 -0.2054790000000 -0.4512550000000 -0.2146600000000 1.0  -0.04
Li     1 -0.2054790000000 -0.0487450000000  0.2853400000000 1.0  -0.04
Li     1  0.2054790000000  0.4512550000000  0.2146600000000 1.0  -0.04
Li     1 -0.4186520000000  0.5276720000000 -0.6471840000000 1.0  -0.06
Li     1  0.4186520000000  0.0276720000000  0.1471840000000 1.0  -0.06
Li     1  0.4186520000000 -0.5276720000000  0.6471840000000 1.0  -0.06
Li     1 -0.4186520000000 -0.0276720000000 -0.1471840000000 1.0  -0.06
O      2  0.2863670000000 -0.4126860000000  0.4405610000000 1.0   0.03
O      2 -0.2863670000000  0.0873140000000  0.0594390000000 1.0   0.03
O      2 -0.2863670000000  0.4126860000000 -0.4405610000000 1.0   0.03
O      2  0.2863670000000 -0.0873140000000 -0.0594390000000 1.0   0.03
S      3 -0.1845040000000 -0.2065680000000  0.0014180000000 1.0   0.06
S      3  0.1845040000000  0.2934320000000 -0.5014180000000 1.0   0.06
S      3  0.1845040000000  0.2065680000000 -0.0014180000000 1.0   0.06
S      3 -0.1845040000000 -0.2934320000000  0.5014180000000 1.0   0.06
S      3  0.5000000000000 -0.5000000000000 -0.0000000000000 1.0   0.02
S      3  0.5000000000000  0.0000000000000  0.5000000000000 1.0   0.02
Fe     4 -0.4286220000000  0.2392160000000 -0.4876570000000 1.0   3.77
Fe     4  0.4286220000000 -0.2607840000000 -0.0123430000000 1.0   3.77
Fe     4  0.4286220000000 -0.2392160000000  0.4876570000000 1.0   3.77
Fe     4 -0.4286220000000  0.2607840000000  0.0123430000000 1.0   3.77
Fe     4  0.0000000000000  0.0000000000000 -0.0000000000000 1.0   2.44
Fe     4  0.0000000000000  0.5000000000000 -0.5000000000000 1.0   2.44
END
