TITL LFSO-Li4Fe3S3O2-201029-190413-734172 -0.0905 468.992012 -1.03443639E+004 24.0000 24.2957 24 (P3) n - 1
REM
REM Run started: Fri, 30 Oct 2020 00:47:32 +0000 in /lustre/scratch/uccabz1/launch_tmp/launcher_2020-10-29-19-04-11-921503
REM CASTEP 20.1 from code version af48c487+ pr-geom-scf-spinfix Tue Jun 2 15:39:59 2020 +0100
REM Functional Perdew Burke Ernzerhof Relativity Koelling-Harmon Dispersion off
REM Cut-off 340.0000 eV Grid scale 1.7500 Gmax 16.5316 1/A FBSC none
REM MP grid 3 3 2 Offset 0.000 0.000 0.000 No. kpts 5 Spacing 0.07
REM Total runtime: 22983 s
REM Overall efficiency: 69.2857 %
REM
REM
REM
REM compiler GCC version 4.9.2
REM options -cpp -iprefix /lustre/shared/ucl/apps/gcc/4.9.2/bin/../lib/gcc/x86_64-unknown-linux-gnu/4.9.2/ -mtune=corei7 -march=x86-64 -g -Og
REM COMMAND_LINE
REM seed -1479565227 -528665708 67812144 -2035963831 -307379524 -1330943391 34324462 629103974 2114085856 -892680024 2137179493 -765371490
REM
REM S 3|1.8|5|6|7|30:31:32(qc=5)
REM O 2|1.5|12|13|15|20:21(qc=5)
REM Li 1|1.3|8|9|10|10U:20(qc=5)
REM Fe 3|2.2|2.0|1.0|8|9|10|40:41:32(qc=5)
REM Fe d:4.0 
REM
CELL 1.54180    7.54621    7.54621    9.50991   90.00000   90.00000  120.00000
LATT -1
SFAC Li O  S  Fe 
Li     1 -0.4036030000000 -0.0459350000000  0.2690020000000 1.0  -0.01
Li     1  0.3576680000000  0.4036030000000  0.2690020000000 1.0  -0.01
Li     1  0.0459350000000 -0.3576680000000  0.2690020000000 1.0  -0.01
Li     1  0.1698630000000  0.2547830000000 -0.4747430000000 1.0  -0.00
Li     1  0.0849200000000 -0.1698630000000 -0.4747430000000 1.0  -0.00
Li     1 -0.2547830000000 -0.0849200000000 -0.4747430000000 1.0  -0.00
Li     1  0.0000000000000  0.0000000000000  0.2123720000000 1.0  -0.04
Li     1 -0.3333330000000  0.3333330000000  0.2031220000000 1.0   0.03
O      2  0.1839640000000  0.3560060000000 -0.2984030000000 1.0   0.19
O      2  0.1720410000000 -0.1839640000000 -0.2984030000000 1.0   0.19
O      2 -0.3560060000000 -0.1720410000000 -0.2984030000000 1.0   0.19
O      2  0.0000000000000  0.0000000000000 -0.0095600000000 1.0   0.15
S      3  0.3151650000000  0.0392140000000  0.3383020000000 1.0   0.02
S      3 -0.2759510000000 -0.3151650000000  0.3383020000000 1.0   0.02
S      3 -0.0392140000000  0.2759510000000  0.3383020000000 1.0   0.02
S      3 -0.5051010000000 -0.5289320000000 -0.0135030000000 1.0   0.15
S      3 -0.0238310000000  0.5051010000000 -0.0135030000000 1.0   0.15
S      3  0.5289320000000  0.0238310000000 -0.0135030000000 1.0   0.15
Fe     4 -0.2974780000000 -0.1670410000000 -0.0531510000000 1.0   3.88
Fe     4  0.1304370000000  0.2974780000000 -0.0531510000000 1.0   3.88
Fe     4  0.1670410000000 -0.1304370000000 -0.0531510000000 1.0   3.88
Fe     4  0.0606990000000  0.5263220000000 -0.2567440000000 1.0   3.73
Fe     4 -0.5343770000000 -0.0606990000000 -0.2567440000000 1.0   3.73
Fe     4 -0.5263220000000  0.5343770000000 -0.2567440000000 1.0   3.73
END
