TITL LFSO-Li4Fe3S4O-201029-165733-161a77 0.0906 489.652842 -5.03459585E+003 0.404839E-10 4.50700 12 (P3) n - 1
REM
REM Run started: Thu, 29 Oct 2020 19:47:23 +0000 in /lustre/scratch/uccabz1/launch_tmp/launcher_2020-10-29-16-57-30-819213
REM CASTEP 20.1 from code version af48c487+ pr-geom-scf-spinfix Tue Jun 2 15:39:59 2020 +0100
REM Functional Perdew Burke Ernzerhof Relativity Koelling-Harmon Dispersion off
REM Cut-off 340.0000 eV Grid scale 1.7500 Gmax 16.5316 1/A FBSC none
REM MP grid 3 3 2 Offset 0.000 0.000 0.000 No. kpts 5 Spacing 0.07
REM Total runtime: 11489 s
REM Overall efficiency: 79.6667 %
REM
REM
REM
REM compiler GCC version 4.9.2
REM options -cpp -iprefix /lustre/shared/ucl/apps/gcc/4.9.2/bin/../lib/gcc/x86_64-unknown-linux-gnu/4.9.2/ -mtune=corei7 -march=x86-64 -g -Og
REM COMMAND_LINE
REM seed -761758604 -910766897 241332003 1446658583 1457937785 -1326234340 2129392611 -604941003 470246184 -941156240 -1851881048 -1980626291
REM
REM S 3|1.8|5|6|7|30:31:32(qc=5)
REM O 2|1.5|12|13|15|20:21(qc=5)
REM Li 1|1.3|8|9|10|10U:20(qc=5)
REM Fe 3|2.2|2.0|1.0|8|9|10|40:41:32(qc=5)
REM Fe d:4.0 
REM
CELL 1.54180    6.67449    6.67449   12.69174   90.00000   90.00000  120.00000
LATT -1
SFAC Li O  S  Fe 
Li     1  0.2630350000000  0.2275980000000 -0.1982850000000 1.0   0.00
Li     1 -0.2275980000000  0.0354370000000 -0.1982850000000 1.0   0.00
Li     1 -0.0354370000000 -0.2630350000000 -0.1982850000000 1.0   0.00
Li     1  0.3333330000000 -0.3333330000000  0.4822530000000 1.0   0.02
O      2  0.0000000000000 -0.0000000000000 -0.1626160000000 1.0   0.00
S      3  0.3839200000000  0.3883900000000 -0.3846650000000 1.0  -0.01
S      3 -0.3883900000000 -0.0044700000000 -0.3846650000000 1.0  -0.01
S      3  0.0044700000000 -0.3839200000000 -0.3846650000000 1.0  -0.01
S      3  0.0000000000000 -0.0000000000000  0.4751640000000 1.0   0.02
Fe     4 -0.2715280000000 -0.2789150000000 -0.4177270000000 1.0  -0.01
Fe     4  0.2789150000000  0.0073870000000 -0.4177270000000 1.0  -0.01
Fe     4 -0.0073870000000  0.2715280000000 -0.4177270000000 1.0  -0.01
END
