TITL LFSO-Li2Fe3S3O-201026-140641-a9d5ea 0.0447 336.716210 -8.66318311E+003 21.3430 21.9096 18 (P-4) n - 1
REM
REM Run started: Mon, 26 Oct 2020 18:37:53 +0000 in /lustre/scratch/uccabz1/launch_tmp/launcher_2020-10-26-14-06-39-731970
REM CASTEP 20.1 from code version af48c487+ pr-geom-scf-spinfix Tue Jun 2 15:39:59 2020 +0100
REM Functional Perdew Burke Ernzerhof Relativity Koelling-Harmon Dispersion off
REM Cut-off 340.0000 eV Grid scale 1.7500 Gmax 16.5316 1/A FBSC none
REM MP grid 3 3 2 Offset 0.000 0.000 0.000 No. kpts 3 Spacing 0.07
REM Total runtime: 16365.7 s
REM Overall efficiency: 72.3 %
REM
REM
REM
REM compiler GCC version 4.9.2
REM options -cpp -iprefix /lustre/shared/ucl/apps/gcc/4.9.2/bin/../lib/gcc/x86_64-unknown-linux-gnu/4.9.2/ -mtune=corei7 -march=x86-64 -g -Og
REM COMMAND_LINE
REM seed 891460437 -949175208 1477741589 -2068058243 1168585647 1105761649 1361239259 1001989023 1288625743 -1264114735 -1908807547 -858473484
REM
REM S 3|1.8|5|6|7|30:31:32(qc=5)
REM O 2|1.5|12|13|15|20:21(qc=5)
REM Li 1|1.3|8|9|10|10U:20(qc=5)
REM Fe 3|2.2|2.0|1.0|8|9|10|40:41:32(qc=5)
REM Fe d:4.0 
REM
CELL 1.54180    5.49323    5.49323   11.15857   90.00000   90.00000   90.00000
LATT -1
SFAC Li O  S  Fe 
Li     1  0.1844310000000  0.2828950000000  0.4236420000000 1.0  -0.00
Li     1 -0.1844310000000 -0.2828950000000  0.4236420000000 1.0  -0.00
Li     1 -0.2828950000000  0.1844310000000 -0.4236420000000 1.0  -0.00
Li     1  0.2828950000000 -0.1844310000000 -0.4236420000000 1.0  -0.00
O      2  0.5000000000000 -0.5000000000000 -0.1160110000000 1.0   0.25
O      2 -0.5000000000000  0.5000000000000  0.1160110000000 1.0   0.25
S      3  0.1312250000000  0.3398680000000 -0.3594770000000 1.0   0.05
S      3 -0.1312250000000 -0.3398680000000 -0.3594770000000 1.0   0.05
S      3 -0.3398680000000  0.1312250000000  0.3594770000000 1.0   0.05
S      3  0.3398680000000 -0.1312250000000  0.3594770000000 1.0   0.05
S      3 -0.5000000000000 -0.0000000000000 -0.2599130000000 1.0   0.03
S      3 -0.0000000000000 -0.5000000000000  0.2599130000000 1.0   0.03
Fe     4  0.2271380000000 -0.3593630000000 -0.1837370000000 1.0   3.55
Fe     4 -0.2271380000000  0.3593630000000 -0.1837370000000 1.0   3.55
Fe     4  0.3593630000000  0.2271380000000  0.1837370000000 1.0   3.55
Fe     4 -0.3593630000000 -0.2271380000000  0.1837370000000 1.0   3.55
Fe     4 -0.5000000000000  0.0000000000000 -0.0395330000000 1.0   3.21
Fe     4 -0.0000000000000  0.5000000000000  0.0395330000000 1.0   3.21
END
