TITL LFSO-LiFe3S4O-201028-105355-5ab70a -0.0003 335.991637 -8.87503856E+003 20.0008 23.0843 18 (P3) n - 1
REM
REM Run started: Wed, 28 Oct 2020 23:51:42 +0000 in /scratch/scratch/uccabz1/launch_tmp/launcher_2020-10-28-10-53-54-093472
REM CASTEP 19.11| from code version Version unavailable
REM Functional Perdew Burke Ernzerhof Relativity Koelling-Harmon Dispersion off
REM Cut-off 340.0000 eV Grid scale 1.7500 Gmax 16.5316 1/A FBSC none
REM MP grid 3 3 3 Offset 0.000 0.000 0.000 No. kpts 8 Spacing 0.07
REM Total runtime: 47502.6 s
REM Overall efficiency: 90 %
REM
REM
REM
REM compiler GCC version 4.9.2
REM options -cpp -iprefix /scratch/UCL/applications/gcc/4.9.2/bin/../lib/gcc/x86_64-unknown-linux-gnu/4.9.2/ -mtune=corei7 -march=x86-64 -g -O2
REM COMMAND_LINE
REM seed 1872962791 470575015 -1483027969 246496367 -396916030 547785811 1623531706 -1571702090 12220400 -1106832633 -1922177394 -284335807
REM
REM S 3|1.8|5|6|7|30:31:32(qc=5)
REM O 2|1.5|12|13|15|20:21(qc=5)
REM Li 1|1.3|8|9|10|10U:20(qc=5)
REM Fe 3|2.2|2.0|1.0|8|9|10|40:41:32(qc=5)
REM Fe d:4.0 
REM
CELL 1.54180    6.85225    7.52458    7.52458  120.00000   90.00000   90.00000
LATT -1
SFAC Li O  S  Fe 
Li     1  0.1174820000000 -0.3333330000000  0.3333330000000 1.0  -0.03
Li     1 -0.2149410000000 -0.3333330000000  0.3333330000000 1.0  -0.04
O      2  0.1304930000000  0.3333330000000 -0.3333330000000 1.0  -0.16
O      2 -0.2882130000000  0.0000000000000 -0.0000000000000 1.0   0.07
S      3 -0.5213610000000 -0.3735890000000 -0.0831760000000 1.0  -0.25
S      3 -0.5213610000000  0.2904140000000  0.3735890000000 1.0  -0.25
S      3 -0.5213610000000  0.0831760000000 -0.2904140000000 1.0  -0.25
S      3  0.0134100000000 -0.1130860000000  0.2224630000000 1.0  -0.08
S      3  0.0134100000000  0.3355500000000  0.1130860000000 1.0  -0.08
S      3  0.0134100000000 -0.2224630000000 -0.3355500000000 1.0  -0.08
S      3  0.4428660000000 -0.3333330000000  0.3333330000000 1.0  -0.33
S      3 -0.1014390000000  0.3333330000000 -0.3333330000000 1.0  -0.33
Fe     4 -0.2052410000000 -0.2856830000000 -0.1316160000000 1.0   3.59
Fe     4 -0.2052410000000  0.1540670000000  0.2856830000000 1.0   3.59
Fe     4 -0.2052410000000  0.1316160000000 -0.1540670000000 1.0   3.59
Fe     4  0.3210940000000  0.3787770000000 -0.0239920000000 1.0   3.69
Fe     4  0.3210940000000 -0.4027700000000 -0.3787770000000 1.0   3.69
Fe     4  0.3210940000000  0.0239920000000  0.4027700000000 1.0   3.69
END
