TITL LFSO-Li4Fe3S4O-201021-173829-97508e 0.0205 498.159969 -1.00716741E+004 0.111447E-01 23.2850 24 (P3) n - 1
REM
REM Run started: Thu, 22 Oct 2020 05:28:48 +0100 in /scratch/scratch/uccabz1/launch_tmp/launcher_2020-10-21-22-51-36-188963
REM CASTEP 19.11| from code version Version unavailable
REM Functional Perdew Burke Ernzerhof Relativity Koelling-Harmon Dispersion off
REM Cut-off 340.0000 eV Grid scale 1.7500 Gmax 16.5316 1/A FBSC none
REM MP grid 3 2 2 Offset 0.000 0.000 0.000 No. kpts 6 Spacing 0.07
REM Total runtime: 35527.5 s
REM Overall efficiency: 98.4615 %
REM
REM
REM
REM compiler GCC version 4.9.2
REM options -cpp -iprefix /scratch/UCL/applications/gcc/4.9.2/bin/../lib/gcc/x86_64-unknown-linux-gnu/4.9.2/ -mtune=corei7 -march=x86-64 -g -O2
REM COMMAND_LINE
REM seed -980341282 1609727115 -86399984 614564205 514488024 1214724704 -2092588983 -1583610469 1072171402 -2036786427 638332376 -2017865703
REM
REM S 3|1.8|5|6|7|30:31:32(qc=5)
REM O 2|1.5|12|13|15|20:21(qc=5)
REM Li 1|1.3|8|9|10|10U:20(qc=5)
REM Fe 3|2.2|2.0|1.0|8|9|10|40:41:32(qc=5)
REM Fe d:4.0 
REM
CELL 1.54180    6.92596    9.11337    9.11337  120.00000   90.00000   90.00000
LATT -1
SFAC Li O  S  Fe 
Li     1  0.0224750000000 -0.3042610000000 -0.1669920000000 1.0  -0.03
Li     1  0.0224750000000  0.1669920000000 -0.1372700000000 1.0  -0.03
Li     1  0.0224750000000  0.1372700000000  0.3042610000000 1.0  -0.03
Li     1  0.4628960000000  0.0655640000000  0.4797870000000 1.0   0.06
Li     1  0.4628960000000 -0.4797870000000 -0.4142240000000 1.0   0.06
Li     1  0.4628960000000  0.4142240000000 -0.0655640000000 1.0   0.06
Li     1  0.1633690000000  0.3333340000000 -0.3333340000000 1.0   0.03
Li     1 -0.1956950000000  0.3333340000000 -0.3333340000000 1.0   0.02
O      2  0.2187130000000 -0.3333330000000  0.3333330000000 1.0  -0.20
O      2 -0.3837780000000 -0.3333330000000  0.3333330000000 1.0  -0.14
S      3 -0.0599110000000  0.0218260000000 -0.4558650000000 1.0   0.03
S      3 -0.0599110000000  0.4558650000000  0.4776900000000 1.0   0.03
S      3 -0.0599110000000 -0.4776900000000 -0.0218260000000 1.0   0.03
S      3  0.2972820000000  0.2525790000000  0.0426310000000 1.0  -0.07
S      3  0.2972820000000 -0.0426310000000  0.2099470000000 1.0  -0.07
S      3  0.2972820000000 -0.2099470000000 -0.2525790000000 1.0  -0.07
S      3 -0.1087490000000  0.0000000000000 -0.0000000000000 1.0  -0.12
S      3 -0.5174840000000  0.3333340000000 -0.3333340000000 1.0  -0.00
Fe     4  0.0114890000000 -0.2475830000000 -0.4392330000000 1.0   3.81
Fe     4  0.0114890000000  0.4392330000000  0.1916500000000 1.0   3.81
Fe     4  0.0114890000000 -0.1916500000000  0.2475830000000 1.0   3.81
Fe     4  0.4382190000000 -0.2424950000000  0.2305680000000 1.0  -3.66
Fe     4  0.4382190000000 -0.2305680000000 -0.4730650000000 1.0  -3.66
Fe     4  0.4382190000000  0.4730650000000  0.2424950000000 1.0  -3.66
END
