TITL LFSO-Li5FeS2O2-201026-234215-1fee14 -0.0392 139.043566 -3.34502623E+003 3.00226 3.82288 10 (C2) n - 1
REM
REM Run started: Tue, 27 Oct 2020 09:52:46 +0000 in /lustre/scratch/uccabz1/launch_tmp/launcher_2020-10-26-23-42-14-248995
REM CASTEP 20.1 from code version af48c487+ pr-geom-scf-spinfix Tue Jun 2 15:39:59 2020 +0100
REM Functional Perdew Burke Ernzerhof Relativity Koelling-Harmon Dispersion off
REM Cut-off 340.0000 eV Grid scale 1.7500 Gmax 16.5316 1/A FBSC none
REM MP grid 7 3 3 Offset 0.000 0.000 0.000 No. kpts 22 Spacing 0.07
REM Total runtime: 13514.7 s
REM Overall efficiency: 79.4167 %
REM
REM
REM
REM compiler GCC version 4.9.2
REM options -cpp -iprefix /lustre/shared/ucl/apps/gcc/4.9.2/bin/../lib/gcc/x86_64-unknown-linux-gnu/4.9.2/ -mtune=corei7 -march=x86-64 -g -Og
REM COMMAND_LINE
REM seed 1382533641 -1588567125 1377667568 36502215 1691085113 1432073187 -1346988823 -1075880259 855341082 -72160593 -1900254864 -862185114
REM
REM S 3|1.8|5|6|7|30:31:32(qc=5)
REM O 2|1.5|12|13|15|20:21(qc=5)
REM Li 1|1.3|8|9|10|10U:20(qc=5)
REM Fe 3|2.2|2.0|1.0|8|9|10|40:41:32(qc=5)
REM Fe d:4.0 
REM
CELL 1.54180    3.77200   10.48161   10.48161   34.13295   39.98325   39.98325
LATT -1
SFAC Li O  S  Fe 
Li     1  0.0577310000000  0.3291100000000  0.1397530000000 1.0   0.00
Li     1 -0.0577310000000 -0.1397530000000 -0.3291100000000 1.0   0.00
Li     1 -0.1274810000000 -0.0436400000000 -0.6418530000000 1.0   0.01
Li     1  0.1274810000000  0.6418530000000  0.0436400000000 1.0   0.01
Li     1  0.0000000000000 -0.1267680000000  0.1267680000000 1.0  -0.07
O      2  0.4028630000000 -0.0162360000000  0.3181000000000 1.0  -0.06
O      2 -0.4028630000000 -0.3181000000000  0.0162360000000 1.0  -0.06
S      3  0.0139750000000  0.2312620000000  0.5214390000000 1.0  -0.16
S      3 -0.0139750000000 -0.5214390000000 -0.2312620000000 1.0  -0.16
Fe     4  0.0000000000000  0.3669480000000 -0.3669480000000 1.0   3.49
END
