TITL LFSO-LiFe3S4O-201028-131812-d31b39 0.0183 403.807453 -8.87664609E+003 22.0034 23.5814 18 (Cc) n - 1
REM
REM Run started: Thu, 29 Oct 2020 08:51:35 +0000 in /scratch/scratch/uccabz1/launch_tmp/launcher_2020-10-28-13-18-10-923555
REM CASTEP 19.11| from code version Version unavailable
REM Functional Perdew Burke Ernzerhof Relativity Koelling-Harmon Dispersion off
REM Cut-off 340.0000 eV Grid scale 1.7500 Gmax 16.5316 1/A FBSC none
REM MP grid 3 3 2 Offset 0.000 0.000 0.000 No. kpts 9 Spacing 0.07
REM Total runtime: 79179.9 s
REM Overall efficiency: 82.0833 %
REM
REM
REM
REM compiler GCC version 4.9.2
REM options -cpp -iprefix /scratch/UCL/applications/gcc/4.9.2/bin/../lib/gcc/x86_64-unknown-linux-gnu/4.9.2/ -mtune=corei7 -march=x86-64 -g -O2
REM COMMAND_LINE
REM seed -905426474 1342109854 -798254056 -191714862 286712805 -1912749499 -619738312 -164306670 -269308306 89181900 -128071339 -894226752
REM
REM S 3|1.8|5|6|7|30:31:32(qc=5)
REM O 2|1.5|12|13|15|20:21(qc=5)
REM Li 1|1.3|8|9|10|10U:20(qc=5)
REM Fe 3|2.2|2.0|1.0|8|9|10|40:41:32(qc=5)
REM Fe d:4.0 
REM
CELL 1.54180    6.93792    6.86236   10.54414   72.77282   70.79224   59.63506
LATT -1
SFAC Li O  S  Fe 
Li     1  0.2742180000000 -0.2161740000000  0.3038790000000 1.0  -0.03
Li     1  0.1380770000000  0.2838260000000 -0.1961210000000 1.0  -0.03
O      2 -0.5562450000000  0.2486940000000 -0.2457180000000 1.0   0.16
O      2  0.0532690000000 -0.2513060000000  0.2542820000000 1.0   0.16
S      3 -0.4238260000000 -0.3033990000000 -0.2583930000000 1.0   0.03
S      3  0.4856180000000  0.1966010000000  0.2416070000000 1.0   0.03
S      3 -0.1322920000000  0.4225940000000 -0.3417550000000 1.0  -0.16
S      3 -0.4485460000000 -0.0774060000000  0.1582450000000 1.0  -0.16
S      3  0.0864820000000 -0.2118400000000 -0.4536190000000 1.0   0.00
S      3  0.0789770000000  0.2881600000000  0.0463810000000 1.0   0.00
S      3 -0.3016630000000 -0.4561460000000  0.3830840000000 1.0  -0.12
S      3 -0.1252760000000  0.0438540000000 -0.1169160000000 1.0  -0.12
Fe     4 -0.0922830000000 -0.3329070000000  0.4506550000000 1.0   3.47
Fe     4 -0.5254650000000  0.1670930000000 -0.0493450000000 1.0   3.47
Fe     4  0.0704760000000  0.4799010000000  0.2050510000000 1.0   3.82
Fe     4 -0.2554280000000 -0.0200990000000 -0.2949490000000 1.0   3.82
Fe     4 -0.5436390000000 -0.4783590000000 -0.3852380000000 1.0   3.85
Fe     4 -0.0927640000000  0.0216410000000  0.1147620000000 1.0   3.85
END
