TITL LFSO-Li6FeSO3-201028-062543-53434b -0.0049 382.623369 -7.35462660E+003 8.15424 8.71315 22 (Fmmm) n - 1
REM
REM Run started: Wed, 28 Oct 2020 12:34:32 +0000 in /scratch/scratch/uccabz1/launch_tmp/launcher_2020-10-28-06-25-42-213889
REM CASTEP 19.11| from code version Version unavailable
REM Functional Perdew Burke Ernzerhof Relativity Koelling-Harmon Dispersion off
REM Cut-off 340.0000 eV Grid scale 1.7500 Gmax 16.5316 1/A FBSC none
REM MP grid 3 3 3 Offset 0.000 0.000 0.000 No. kpts 8 Spacing 0.07
REM Total runtime: 23701.9 s
REM Overall efficiency: 74.1538 %
REM
REM
REM
REM compiler GCC version 4.9.2
REM options -cpp -iprefix /scratch/UCL/applications/gcc/4.9.2/bin/../lib/gcc/x86_64-unknown-linux-gnu/4.9.2/ -mtune=corei7 -march=x86-64 -g -O2
REM COMMAND_LINE
REM seed 142122988 -1220707790 1693900554 949190083 -2075877491 -1712838850 1104334214 72341093 -1664376368 1852759153 499164924 1391552200
REM
REM S 3|1.8|5|6|7|30:31:32(qc=5)
REM O 2|1.5|12|13|15|20:21(qc=5)
REM Li 1|1.3|8|9|10|10U:20(qc=5)
REM Fe 3|2.2|2.0|1.0|8|9|10|40:41:32(qc=5)
REM Fe d:4.0 
REM
CELL 1.54180    8.81796    8.81796    9.88977  134.74139  134.74139   54.62445
LATT -1
SFAC Li O  S  Fe 
Li     1  0.0390960000000  0.1386170000000 -0.3222890000000 1.0  -0.06
Li     1  0.4609060000000  0.3613850000000  0.3222890000000 1.0  -0.06
Li     1 -0.1386170000000 -0.0390960000000  0.3222890000000 1.0  -0.06
Li     1 -0.3613850000000 -0.4609060000000 -0.3222890000000 1.0  -0.06
Li     1  0.4736520000000 -0.3357610000000  0.2945170000000 1.0  -0.02
Li     1  0.3697210000000  0.1791350000000 -0.2945170000000 1.0  -0.02
Li     1  0.3357610000000 -0.4736520000000 -0.2945170000000 1.0  -0.02
Li     1 -0.1791350000000 -0.3697210000000  0.2945170000000 1.0  -0.02
Li     1 -0.3207910000000 -0.1303250000000 -0.2945270000000 1.0  -0.02
Li     1  0.1642020000000 -0.0262640000000  0.2945270000000 1.0  -0.02
Li     1  0.1303250000000  0.3207910000000  0.2945270000000 1.0  -0.02
Li     1  0.0262640000000 -0.1642020000000 -0.2945270000000 1.0  -0.02
O      2 -0.3593430000000 -0.4462600000000 -0.4999610000000 1.0   0.09
O      2  0.0537000000000  0.1406180000000  0.4999610000000 1.0   0.09
O      2  0.4462600000000  0.3593430000000  0.4999610000000 1.0   0.09
O      2 -0.1406180000000 -0.0537000000000 -0.4999610000000 1.0   0.09
O      2  0.4594790000000 -0.0405210000000 -0.5000000000000 1.0   0.11
O      2  0.0405210000000 -0.4594790000000  0.5000000000000 1.0   0.11
S      3  0.2499170000000 -0.2499170000000  0.0000000000000 1.0   0.11
S      3 -0.2499170000000  0.2499170000000  0.0000000000000 1.0   0.11
Fe     4 -0.0838580000000  0.4161420000000  0.5000000000000 1.0   3.88
Fe     4 -0.4161420000000  0.0838580000000  0.5000000000000 1.0   3.88
END
