TITL LFSO-Li4Fe3S3O2-201030-003634-fd22be 0.0572 441.005553 -1.03459143E+004 24.0000 24.2844 24 (P3) n - 1
REM
REM Run started: Sat, 31 Oct 2020 14:12:45 +0000 in /lustre/scratch/uccabz1/launch_tmp/launcher_2020-10-30-00-36-31-690952
REM CASTEP 20.1 from code version af48c487+ pr-geom-scf-spinfix Tue Jun 2 15:39:59 2020 +0100
REM Functional Perdew Burke Ernzerhof Relativity Koelling-Harmon Dispersion off
REM Cut-off 340.0000 eV Grid scale 1.7500 Gmax 16.5316 1/A FBSC none
REM MP grid 3 3 2 Offset 0.000 0.000 0.000 No. kpts 5 Spacing 0.07
REM Total runtime: 145336 s
REM Overall efficiency: 76.5 %
REM
REM
REM
REM compiler GCC version 4.9.2
REM options -cpp -iprefix /lustre/shared/ucl/apps/gcc/4.9.2/bin/../lib/gcc/x86_64-unknown-linux-gnu/4.9.2/ -mtune=corei7 -march=x86-64 -g -Og
REM COMMAND_LINE
REM seed 1665105480 1439347820 -408960029 -908768441 1419252377 310292309 744612768 -283886707 1365738472 -1227310236 -371812340 1782685389
REM
REM S 3|1.8|5|6|7|30:31:32(qc=5)
REM O 2|1.5|12|13|15|20:21(qc=5)
REM Li 1|1.3|8|9|10|10U:20(qc=5)
REM Fe 3|2.2|2.0|1.0|8|9|10|40:41:32(qc=5)
REM Fe d:4.0 
REM
CELL 1.54180    7.01916    7.01916   10.33578   90.00000   90.00000  120.00000
LATT -1
SFAC Li O  S  Fe 
Li     1  0.3668240000000  0.0420560000000  0.1924930000000 1.0  -0.01
Li     1 -0.3247680000000 -0.3668240000000  0.1924930000000 1.0  -0.01
Li     1 -0.0420560000000  0.3247680000000  0.1924930000000 1.0  -0.01
Li     1  0.0023750000000  0.2475160000000 -0.2911870000000 1.0  -0.05
Li     1  0.2451410000000 -0.0023750000000 -0.2911870000000 1.0  -0.05
Li     1 -0.2475160000000 -0.2451410000000 -0.2911870000000 1.0  -0.05
Li     1  0.3333330000000 -0.3333330000000  0.2552330000000 1.0  -0.09
Li     1 -0.0000000000000  0.0000000000000  0.3827420000000 1.0  -0.02
O      2 -0.3697730000000 -0.2756000000000  0.5535250000000 1.0   0.22
O      2  0.0941730000000  0.3697730000000  0.5535250000000 1.0   0.22
O      2  0.2756000000000 -0.0941730000000  0.5535250000000 1.0   0.22
O      2 -0.0000000000000  0.0000000000000 -0.1902350000000 1.0   0.23
S      3 -0.3817450000000 -0.3849380000000 -0.0584930000000 1.0   0.14
S      3 -0.0031930000000  0.3817450000000 -0.0584930000000 1.0   0.14
S      3  0.3849380000000  0.0031930000000 -0.0584930000000 1.0   0.14
S      3  0.3153160000000  0.3288990000000  0.2680600000000 1.0   0.06
S      3  0.0135830000000 -0.3153160000000  0.2680600000000 1.0   0.06
S      3 -0.3288990000000 -0.0135830000000  0.2680600000000 1.0   0.06
Fe     4 -0.6161420000000 -0.5396790000000 -0.5186100000000 1.0   3.75
Fe     4  0.0764620000000  0.6161420000000 -0.5186100000000 1.0   3.75
Fe     4  0.5396790000000 -0.0764620000000 -0.5186100000000 1.0   3.75
Fe     4  0.0019280000000 -0.2682650000000 -0.0776560000000 1.0   3.84
Fe     4 -0.2701930000000 -0.0019280000000 -0.0776560000000 1.0   3.84
Fe     4  0.2682650000000  0.2701930000000 -0.0776560000000 1.0   3.84
END
