TITL LFSO-Li2Fe4S3O2-201025-053045-70bba6 0.0052 647.431411 -1.12687484E+004 24.0000 31.9886 22 (R3) n - 1
REM
REM Run started: Wed, 28 Oct 2020 04:03:38 +0000 in /lustre/scratch/uccabz1/launch_tmp/launcher_2020-10-28-01-07-35-459490
REM CASTEP 20.1 from code version af48c487+ pr-geom-scf-spinfix Tue Jun 2 15:39:59 2020 +0100
REM Functional Perdew Burke Ernzerhof Relativity Koelling-Harmon Dispersion off
REM Cut-off 340.0000 eV Grid scale 1.7500 Gmax 16.5316 1/A FBSC none
REM MP grid 3 3 3 Offset 0.000 0.000 0.000 No. kpts 6 Spacing 0.07
REM Total runtime: 149647 s
REM Overall efficiency: 75.4167 %
REM
REM
REM
REM compiler GCC version 4.9.2
REM options -cpp -iprefix /scratch/UCL/applications/gcc/4.9.2/bin/../lib/gcc/x86_64-unknown-linux-gnu/4.9.2/ -mtune=corei7 -march=x86-64 -g -O2
REM COMMAND_LINE
REM seed -1154272598 422414907 -951395925 1633709175 208523888 -1882919353 1107152120 -1731832302 -955112635 768317026 1624494814 -148374952
REM
REM S 3|1.8|5|6|7|30:31:32(qc=5)
REM O 2|1.5|12|13|15|20:21(qc=5)
REM Li 1|1.3|8|9|10|10U:20(qc=5)
REM Fe 3|2.2|2.0|1.0|8|9|10|40:41:32(qc=5)
REM Fe d:4.0 
REM
CELL 1.54180   11.67724   11.67724   11.67724   42.09667   42.09667   42.09667
LATT -1
SFAC Li O  S  Fe 
Li     1 -0.3615940000000  0.2486460000000 -0.0775980000000 1.0  -0.01
Li     1  0.2486460000000 -0.0775980000000 -0.3615940000000 1.0  -0.01
Li     1 -0.0775980000000 -0.3615940000000  0.2486460000000 1.0  -0.01
Li     1  0.1258670000000  0.1258670000000  0.1258670000000 1.0  -0.08
O      2  0.2077020000000  0.0060090000000 -0.2489540000000 1.0   0.23
O      2  0.0060090000000 -0.2489540000000  0.2077020000000 1.0   0.23
O      2 -0.2489540000000  0.2077020000000  0.0060090000000 1.0   0.23
O      2 -0.1940230000000 -0.1940230000000 -0.1940230000000 1.0   0.30
S      3 -0.1590660000000  0.0660100000000  0.3575940000000 1.0   0.11
S      3  0.0660100000000  0.3575940000000 -0.1590660000000 1.0   0.11
S      3  0.3575940000000 -0.1590660000000  0.0660100000000 1.0   0.11
S      3 -0.2171930000000 -0.4327590000000  0.2394390000000 1.0  -0.02
S      3 -0.4327590000000  0.2394390000000 -0.2171930000000 1.0  -0.02
S      3  0.2394390000000 -0.2171930000000 -0.4327590000000 1.0  -0.02
Fe     4  0.2606490000000  0.0678230000000 -0.1844380000000 1.0   3.78
Fe     4  0.0678230000000 -0.1844380000000  0.2606490000000 1.0   3.78
Fe     4 -0.1844380000000  0.2606490000000  0.0678230000000 1.0   3.78
Fe     4 -0.3775010000000 -0.2515630000000  0.0670860000000 1.0   3.84
Fe     4 -0.2515630000000  0.0670860000000 -0.3775010000000 1.0   3.84
Fe     4  0.0670860000000 -0.3775010000000 -0.2515630000000 1.0   3.84
Fe     4  0.5288610000000  0.5288610000000  0.5288610000000 1.0  -3.66
Fe     4 -0.0183200000000 -0.0183200000000 -0.0183200000000 1.0   3.67
END
