TITL LFSO-Li5FeS2O2-201026-233523-bcf0b7 -0.7773 251.215235 -3.34013695E+003 4.99996 5.15872 10 (R3m) n - 1
REM
REM Run started: Tue, 27 Oct 2020 00:59:11 +0000 in /scratch/scratch/uccabz1/launch_tmp/launcher_2020-10-26-23-35-22-106271
REM CASTEP 19.11| from code version Version unavailable
REM Functional Perdew Burke Ernzerhof Relativity Koelling-Harmon Dispersion off
REM Cut-off 340.0000 eV Grid scale 1.7500 Gmax 16.5316 1/A FBSC none
REM MP grid 3 3 3 Offset 0.000 0.000 0.000 No. kpts 6 Spacing 0.07
REM Total runtime: 5341.96 s
REM Overall efficiency: 78.4167 %
REM
REM
REM
REM compiler GCC version 4.9.2
REM options -cpp -iprefix /scratch/UCL/applications/gcc/4.9.2/bin/../lib/gcc/x86_64-unknown-linux-gnu/4.9.2/ -mtune=corei7 -march=x86-64 -g -O2
REM COMMAND_LINE
REM seed 378134885 535292258 -1816752783 -2063196694 -1469767135 145360220 1760372994 -2074618539 -849118672 289353410 101613089 1656831167
REM
REM S 3|1.8|5|6|7|30:31:32(qc=5)
REM O 2|1.5|12|13|15|20:21(qc=5)
REM Li 1|1.3|8|9|10|10U:20(qc=5)
REM Fe 3|2.2|2.0|1.0|8|9|10|40:41:32(qc=5)
REM Fe d:4.0 
REM
CELL 1.54180    6.46680    6.46680    7.87744   65.76601   65.76601   60.00000
LATT -1
SFAC Li O  S  Fe 
Li     1  0.5410570000000 -0.4611930000000 -0.0142290000000 1.0  -0.03
Li     1 -0.4611930000000 -0.0656350000000 -0.0142290000000 1.0  -0.03
Li     1 -0.0656350000000  0.5410570000000 -0.0142290000000 1.0  -0.03
Li     1  0.0537580000000  0.0537580000000 -0.1612730000000 1.0   0.02
Li     1 -0.1938090000000 -0.1938090000000  0.5814280000000 1.0  -0.02
O      2 -0.2797730000000 -0.2797730000000  0.8393200000000 1.0   0.14
O      2  0.1351000000000  0.1351000000000 -0.4052990000000 1.0   0.36
S      3  0.3297450000000  0.3297450000000 -0.9892360000000 1.0   0.05
S      3 -0.4233290000000 -0.4233290000000  1.2699880000000 1.0   0.62
Fe     4  0.2189470000000  0.2189470000000 -0.6568400000000 1.0   3.93
END
