TITL LFSO-Li3FeS2O-201023-095648-e7edff 0.0325 284.626359 -5.01248689E+003 8.00024 8.58745 14 (R3) n - 1
REM
REM Run started: Fri, 23 Oct 2020 11:26:44 +0100 in /lustre/scratch/uccabz1/launch_tmp/launcher_2020-10-23-08-56-46-439242
REM CASTEP 20.1 from code version af48c487+ pr-geom-scf-spinfix Tue Jun 2 15:39:59 2020 +0100
REM Functional Perdew Burke Ernzerhof Relativity Koelling-Harmon Dispersion off
REM Cut-off 340.0000 eV Grid scale 1.7500 Gmax 16.5316 1/A FBSC none
REM MP grid 3 3 3 Offset 0.000 0.000 0.000 No. kpts 6 Spacing 0.07
REM Total runtime: 5456.18 s
REM Overall efficiency: 91.8571 %
REM
REM
REM
REM compiler GCC version 4.9.2
REM options -cpp -iprefix /lustre/shared/ucl/apps/gcc/4.9.2/bin/../lib/gcc/x86_64-unknown-linux-gnu/4.9.2/ -mtune=corei7 -march=x86-64 -g -Og
REM COMMAND_LINE
REM seed 1004189263 1892344768 670673232 655479980 1433552331 -516129014 -1813747771 492319453 1562701081 -497972422 -356494928 128403609
REM
REM S 3|1.8|5|6|7|30:31:32(qc=5)
REM O 2|1.5|12|13|15|20:21(qc=5)
REM Li 1|1.3|8|9|10|10U:20(qc=5)
REM Fe 3|2.2|2.0|1.0|8|9|10|40:41:32(qc=5)
REM Fe d:4.0 
REM
CELL 1.54180    7.28462    7.28462    7.48646   60.88788   60.88788   60.00000
LATT -1
SFAC Li O  S  Fe 
Li     1  0.3286740000000  0.3224130000000 -0.4238450000000 1.0  -0.04
Li     1 -0.2272410000000  0.3286740000000 -0.4238450000000 1.0  -0.04
Li     1  0.3224130000000 -0.2272410000000 -0.4238450000000 1.0  -0.04
Li     1  0.0449440000000 -0.3706860000000  0.3028410000000 1.0   0.02
Li     1  0.0229010000000  0.0449440000000  0.3028410000000 1.0   0.02
Li     1 -0.3706860000000  0.0229010000000  0.3028410000000 1.0   0.02
O      2  0.4659880000000  0.4659880000000 -0.3979630000000 1.0   0.11
O      2 -0.0629910000000 -0.0629910000000  0.1889740000000 1.0   0.20
S      3 -0.0793560000000 -0.0731500000000 -0.2662820000000 1.0   0.03
S      3  0.4187880000000 -0.0793560000000 -0.2662820000000 1.0   0.03
S      3 -0.0731500000000  0.4187880000000 -0.2662820000000 1.0   0.03
S      3  0.2481540000000  0.2481540000000  0.2555370000000 1.0   0.04
Fe     4  0.3663360000000  0.3663360000000 -0.0990080000000 1.0   3.90
Fe     4  0.0392450000000  0.0392450000000 -0.1177340000000 1.0   3.72
END
