TITL LFSO-Li5FeSO3-201026-081321-2d30f1 0.0020 262.921724 -6.95291888E+003 9.99739 10.0524 20 (Ccc2) n - 1
REM
REM Run started: Mon, 26 Oct 2020 11:59:22 +0000 in /lustre/scratch/uccabz1/launch_tmp/launcher_2020-10-26-08-13-19-378092
REM CASTEP 20.1 from code version af48c487+ pr-geom-scf-spinfix Tue Jun 2 15:39:59 2020 +0100
REM Functional Perdew Burke Ernzerhof Relativity Koelling-Harmon Dispersion off
REM Cut-off 340.0000 eV Grid scale 1.7500 Gmax 16.5316 1/A FBSC none
REM MP grid 4 5 1 Offset 0.000 0.000 0.000 No. kpts 10 Spacing 0.07
REM Total runtime: 14065.6 s
REM Overall efficiency: 86.125 %
REM
REM
REM
REM compiler GCC version 4.9.2
REM options -cpp -iprefix /lustre/shared/ucl/apps/gcc/4.9.2/bin/../lib/gcc/x86_64-unknown-linux-gnu/4.9.2/ -mtune=corei7 -march=x86-64 -g -Og
REM COMMAND_LINE
REM seed 496101491 1971716893 256392393 643843415 1745427337 1987200037 -1571162788 -1802790036 -40178846 -451203679 -2044194037 -655664619
REM
REM S 3|1.8|5|6|7|30:31:32(qc=5)
REM O 2|1.5|12|13|15|20:21(qc=5)
REM Li 1|1.3|8|9|10|10U:20(qc=5)
REM Fe 3|2.2|2.0|1.0|8|9|10|40:41:32(qc=5)
REM Fe d:4.0 
REM
CELL 1.54180    5.23125    4.02778   16.40906   90.00000   90.00000  130.49602
LATT -1
SFAC Li O  S  Fe 
Li     1  0.2203320000000 -0.5811320000000 -0.2063460000000 1.0   0.00
Li     1 -0.2203320000000  0.5811320000000 -0.2063460000000 1.0   0.00
Li     1  0.1985360000000 -0.5811320000000  0.2936540000000 1.0   0.00
Li     1 -0.1985360000000  0.5811320000000  0.2936540000000 1.0   0.00
Li     1  0.3438630000000 -0.4063050000000 -0.0015860000000 1.0  -0.01
Li     1 -0.3438630000000  0.4063050000000 -0.0015860000000 1.0  -0.01
Li     1  0.2498320000000 -0.4063050000000  0.4984140000000 1.0  -0.01
Li     1 -0.2498320000000  0.4063050000000  0.4984140000000 1.0  -0.01
Li     1  0.0000000000000  0.0000000000000  0.1495630000000 1.0  -0.11
Li     1  0.0000000000000  0.0000000000000 -0.3504370000000 1.0  -0.11
O      2 -0.2776910000000 -0.0630470000000 -0.2619100000000 1.0   0.44
O      2  0.2776910000000  0.0630470000000 -0.2619100000000 1.0   0.44
O      2  0.2146440000000 -0.0630470000000  0.2380900000000 1.0   0.44
O      2 -0.2146440000000  0.0630470000000  0.2380900000000 1.0   0.44
O      2  0.5000000000000  0.5000000000000  0.0982620000000 1.0   0.14
O      2  0.0000000000000  0.5000000000000 -0.4017380000000 1.0   0.14
S      3  0.0000000000000  0.0000000000000 -0.0743720000000 1.0   0.03
S      3  0.0000000000000  0.0000000000000  0.4256280000000 1.0   0.03
Fe     4 -0.5000000000000  0.0000000000000  0.1646690000000 1.0   4.06
Fe     4 -0.5000000000000  0.0000000000000 -0.3353310000000 1.0   4.06
END
