TITL LFSO-Li2Fe3S2O2-201024-022754-412db4 -0.0215 194.550253 -4.46875909E+003 12.0000 12.1226 9 (Cm) n - 1
REM
REM Run started: Sat, 24 Oct 2020 04:10:11 +0100 in /lustre/scratch/uccabz1/launch_tmp/launcher_2020-10-24-01-27-52-923290
REM CASTEP 20.1 from code version af48c487+ pr-geom-scf-spinfix Tue Jun 2 15:39:59 2020 +0100
REM Functional Perdew Burke Ernzerhof Relativity Koelling-Harmon Dispersion off
REM Cut-off 340.0000 eV Grid scale 1.7500 Gmax 16.5316 1/A FBSC none
REM MP grid 3 3 3 Offset 0.000 0.000 0.000 No. kpts 10 Spacing 0.07
REM Total runtime: 7337.79 s
REM Overall efficiency: 81.4615 %
REM
REM
REM
REM compiler GCC version 4.9.2
REM options -cpp -iprefix /lustre/shared/ucl/apps/gcc/4.9.2/bin/../lib/gcc/x86_64-unknown-linux-gnu/4.9.2/ -mtune=corei7 -march=x86-64 -g -Og
REM COMMAND_LINE
REM seed 1091619109 -814388464 1398318444 1791078363 -1848586131 -989804860 -1507856329 -1558706319 1817009076 -1081378625 291699762 -421484064
REM
REM S 3|1.8|5|6|7|30:31:32(qc=5)
REM O 2|1.5|12|13|15|20:21(qc=5)
REM Li 1|1.3|8|9|10|10U:20(qc=5)
REM Fe 3|2.2|2.0|1.0|8|9|10|40:41:32(qc=5)
REM Fe d:4.0 
REM
CELL 1.54180    6.55225    6.55225    5.87910   96.08903   96.08903  127.44624
LATT -1
SFAC Li O  S  Fe 
Li     1  0.3807620000000 -0.1423900000000 -0.4876700000000 1.0  -0.02
Li     1 -0.1423900000000  0.3807620000000 -0.4876700000000 1.0  -0.02
O      2 -0.5155150000000  0.1668970000000  0.3379560000000 1.0   0.14
O      2  0.1668970000000 -0.5155150000000  0.3379560000000 1.0   0.14
S      3  0.0905590000000 -0.1945330000000 -0.1827280000000 1.0   0.20
S      3 -0.1945330000000  0.0905590000000 -0.1827280000000 1.0   0.20
Fe     4  0.0711420000000 -0.4806710000000  0.0340770000000 1.0   3.70
Fe     4 -0.4806710000000  0.0711420000000  0.0340770000000 1.0   3.70
Fe     4  0.2228410000000  0.2228410000000  0.2439070000000 1.0   3.97
END
