TITL LFSO-Li5FeSO3-201026-233644-188570 0.0303 263.587201 -6.95691282E+003 9.19998 9.29341 20 (Pcc2) n - 1
REM
REM Run started: Tue, 27 Oct 2020 00:57:50 +0000 in /lustre/scratch/uccabz1/launch_tmp/launcher_2020-10-26-23-39-11-724199
REM CASTEP 20.1 from code version af48c487+ pr-geom-scf-spinfix Tue Jun 2 15:39:59 2020 +0100
REM Functional Perdew Burke Ernzerhof Relativity Koelling-Harmon Dispersion off
REM Cut-off 340.0000 eV Grid scale 1.7500 Gmax 16.5316 1/A FBSC none
REM MP grid 5 3 1 Offset 0.000 0.000 0.000 No. kpts 6 Spacing 0.07
REM Total runtime: 5272.51 s
REM Overall efficiency: 85.2857 %
REM
REM
REM
REM compiler GCC version 4.9.2
REM options -cpp -iprefix /lustre/shared/ucl/apps/gcc/4.9.2/bin/../lib/gcc/x86_64-unknown-linux-gnu/4.9.2/ -mtune=corei7 -march=x86-64 -g -Og
REM COMMAND_LINE
REM seed 921932914 1787559204 2046733143 987882933 1684580076 -787062339 -1750628921 -1558461899 -561533421 659998281 -1068597022 2088059184
REM
REM S 3|1.8|5|6|7|30:31:32(qc=5)
REM O 2|1.5|12|13|15|20:21(qc=5)
REM Li 1|1.3|8|9|10|10U:20(qc=5)
REM Fe 3|2.2|2.0|1.0|8|9|10|40:41:32(qc=5)
REM Fe d:4.0 
REM
CELL 1.54180    2.95853    5.94619   14.98335   90.00000   90.00000   90.00000
LATT -1
SFAC Li O  S  Fe 
Li     1  0.0325340000000 -0.2038660000000  0.0664620000000 1.0  -0.02
Li     1 -0.0325340000000  0.2038660000000  0.0664620000000 1.0  -0.02
Li     1  0.0325340000000  0.2038660000000 -0.4335380000000 1.0  -0.02
Li     1 -0.0325340000000 -0.2038660000000 -0.4335380000000 1.0  -0.02
Li     1  0.4712430000000  0.1896150000000  0.2063140000000 1.0   0.02
Li     1 -0.4712430000000 -0.1896150000000  0.2063140000000 1.0   0.02
Li     1  0.4712430000000 -0.1896150000000 -0.2936860000000 1.0   0.02
Li     1 -0.4712430000000  0.1896150000000 -0.2936860000000 1.0   0.02
Li     1 -0.5000000000000  0.0000000000000 -0.0792050000000 1.0  -0.03
Li     1  0.5000000000000  0.0000000000000  0.4207950000000 1.0  -0.03
O      2  0.5212730000000 -0.2721620000000 -0.0208340000000 1.0   0.23
O      2 -0.5212730000000  0.2721620000000 -0.0208340000000 1.0   0.23
O      2  0.5212730000000  0.2721620000000  0.4791660000000 1.0   0.23
O      2 -0.5212730000000 -0.2721620000000  0.4791660000000 1.0   0.23
O      2  0.0000000000000  0.0000000000000  0.1626940000000 1.0   0.02
O      2  0.0000000000000  0.0000000000000 -0.3373060000000 1.0   0.02
S      3  0.0000000000000 -0.5000000000000 -0.2268480000000 1.0   0.15
S      3  0.0000000000000  0.5000000000000  0.2731520000000 1.0   0.15
Fe     4  0.0000000000000 -0.5000000000000 -0.0637390000000 1.0   4.00
Fe     4  0.0000000000000 -0.5000000000000  0.4362610000000 1.0   4.00
END
