TITL LFSO-Li6FeS3O-201027-140720-7eb831 -0.2271 287.338045 -3.41002086E+003 3.99988 4.10351 11 (C2) n - 1
REM
REM Run started: Tue, 27 Oct 2020 19:22:38 +0000 in /lustre/scratch/uccabz1/launch_tmp/launcher_2020-10-27-14-07-18-776961
REM CASTEP 20.1 from code version af48c487+ pr-geom-scf-spinfix Tue Jun 2 15:39:59 2020 +0100
REM Functional Perdew Burke Ernzerhof Relativity Koelling-Harmon Dispersion off
REM Cut-off 340.0000 eV Grid scale 1.7500 Gmax 16.5316 1/A FBSC none
REM MP grid 5 3 2 Offset 0.000 0.000 0.000 No. kpts 14 Spacing 0.07
REM Total runtime: 22212 s
REM Overall efficiency: 87.5 %
REM
REM
REM
REM compiler GCC version 4.9.2
REM options -cpp -iprefix /lustre/shared/ucl/apps/gcc/4.9.2/bin/../lib/gcc/x86_64-unknown-linux-gnu/4.9.2/ -mtune=corei7 -march=x86-64 -g -Og
REM COMMAND_LINE
REM seed -1999359175 -1716123820 1321640345 -1585403232 -1599431885 -697575420 1484131022 -1653869727 -1665705284 -482125988 1509813478 -1965544081
REM
REM S 3|1.8|5|6|7|30:31:32(qc=5)
REM O 2|1.5|12|13|15|20:21(qc=5)
REM Li 1|1.3|8|9|10|10U:20(qc=5)
REM Fe 3|2.2|2.0|1.0|8|9|10|40:41:32(qc=5)
REM Fe d:4.0 
REM
CELL 1.54180    3.93195    5.87049   17.72773  102.90343  131.82139   70.43413
LATT -1
SFAC Li O  S  Fe 
Li     1 -1.2257470000000  0.2727060000000  0.1622910000000 1.0  -0.01
Li     1  0.9530410000000  0.2727060000000 -0.1622910000000 1.0  -0.01
Li     1 -0.0486930000000 -0.3728510000000  0.0965260000000 1.0  -0.03
Li     1  0.4215440000000 -0.3728510000000 -0.0965260000000 1.0  -0.03
Li     1  1.3484170000000 -0.4815230000000 -0.3333880000000 1.0  -0.00
Li     1 -0.8668940000000 -0.4815230000000  0.3333880000000 1.0  -0.00
O      2 -0.4597110000000 -0.0805780000000  0.0000000000000 1.0   0.12
S      3  1.1190190000000  0.4146700000000 -0.2565440000000 1.0   0.01
S      3 -0.5336900000000  0.4146700000000  0.2565440000000 1.0   0.01
S      3  0.2603490000000  0.4793030000000  0.0000000000000 1.0   0.13
Fe     4  0.0384810000000 -0.0769620000000  0.0000000000000 1.0   3.82
END
