TITL LFSO-Li2Fe4S4O-201024-080122-c96308 0.1078 578.293955 -1.10013436E+004 32.0000 32.3392 22 (Cc) n - 1
REM
REM Run started: Sun, 25 Oct 2020 02:19:30 +0000 in /lustre/scratch/uccabz1/launch_tmp/launcher_2020-10-25-00-33-39-578181
REM CASTEP 20.1 from code version af48c487+ pr-geom-scf-spinfix Tue Jun 2 15:39:59 2020 +0100
REM Functional Perdew Burke Ernzerhof Relativity Koelling-Harmon Dispersion off
REM Cut-off 340.0000 eV Grid scale 1.7500 Gmax 16.5316 1/A FBSC none
REM MP grid 3 3 3 Offset 0.000 0.000 0.000 No. kpts 10 Spacing 0.07
REM Total runtime: 69116.2 s
REM Overall efficiency: 71.5 %
REM
REM
REM
REM compiler GCC version 4.9.2
REM options -cpp -iprefix /lustre/shared/ucl/apps/gcc/4.9.2/bin/../lib/gcc/x86_64-unknown-linux-gnu/4.9.2/ -mtune=corei7 -march=x86-64 -g -Og
REM COMMAND_LINE
REM seed -1096778960 1746836266 -169184798 105784342 -1081218210 -450954501 -769369015 1354903300 -1638537694 -311958048 -689847652 -98904023
REM
REM S 3|1.8|5|6|7|30:31:32(qc=5)
REM O 2|1.5|12|13|15|20:21(qc=5)
REM Li 1|1.3|8|9|10|10U:20(qc=5)
REM Fe 3|2.2|2.0|1.0|8|9|10|40:41:32(qc=5)
REM Fe d:4.0 
REM
CELL 1.54180    8.01241   13.07072   12.66204  147.39925  108.44502   90.00001
LATT -1
SFAC Li O  S  Fe 
Li     1 -0.1083140000000 -0.5980800000000 -0.0917630000000 1.0  -0.02
Li     1  0.0165510000000 -0.0980800000000 -0.0917630000000 1.0  -0.02
Li     1  0.3738140000000 -0.2125540000000 -0.2550710000000 1.0  -0.01
Li     1  0.3711150000000  0.2874460000000 -0.2550710000000 1.0  -0.01
O      2  0.1390210000000  0.1641410000000 -0.4896080000000 1.0   0.25
O      2 -0.6286290000000 -0.3358590000000 -0.4896080000000 1.0   0.25
S      3 -0.0650930000000  0.1886990000000  0.1627010000000 1.0   0.15
S      3  0.2277940000000 -0.3113010000000  0.1627010000000 1.0   0.15
S      3  0.3038950000000 -0.3928580000000 -0.2329630000000 1.0   0.12
S      3 -0.5368580000000  0.1071420000000 -0.2329630000000 1.0   0.12
S      3 -0.0854320000000 -0.2442410000000 -0.0615920000000 1.0   0.18
S      3  0.0238400000000  0.2557590000000 -0.0615920000000 1.0   0.18
S      3 -0.2991490000000  0.5860800000000  0.0277970000000 1.0   0.19
S      3  0.3269470000000  0.0860800000000  0.0277970000000 1.0   0.19
Fe     4 -0.3849440000000 -0.3771790000000 -0.1264180000000 1.0   3.77
Fe     4  0.2585250000000  0.1228210000000 -0.1264180000000 1.0   3.77
Fe     4  0.0193890000000 -0.1425770000000  0.2498610000000 1.0   3.75
Fe     4  0.2304720000000  0.3574230000000  0.2498610000000 1.0   3.75
Fe     4  0.1669350000000 -0.3436900000000 -0.0586930000000 1.0   3.83
Fe     4 -0.2256280000000  0.1563100000000 -0.0586930000000 1.0   3.83
Fe     4  0.0808950000000  0.1976440000000  0.3829740000000 1.0   3.79
Fe     4  0.3020790000000 -0.3023560000000  0.3829740000000 1.0   3.79
END
