TITL LFSO-Li2FeSO-201025-092440-4e610e 0.0260 83.876146 -2.00214181E+003 3.99923 4.09274 5 (Immm) n - 1
REM
REM Run started: Sun, 25 Oct 2020 09:45:08 +0000 in /scratch/scratch/uccabz1/launch_tmp/launcher_2020-10-25-09-24-38-101763
REM CASTEP 19.11| from code version Version unavailable
REM Functional Perdew Burke Ernzerhof Relativity Koelling-Harmon Dispersion off
REM Cut-off 340.0000 eV Grid scale 1.7500 Gmax 16.5316 1/A FBSC none
REM MP grid 4 4 4 Offset 0.000 0.000 0.000 No. kpts 20 Spacing 0.07
REM Total runtime: 1242.52 s
REM Overall efficiency: 67.6 %
REM
REM
REM
REM compiler GCC version 4.9.2
REM options -cpp -iprefix /scratch/UCL/applications/gcc/4.9.2/bin/../lib/gcc/x86_64-unknown-linux-gnu/4.9.2/ -mtune=corei7 -march=x86-64 -g -O2
REM COMMAND_LINE
REM seed 1302300527 -614528144 -2009788392 -1798268083 995716595 2068366198 -606186595 -1736737364 911733063 1188779416 -1403130736 -1154342898
REM
REM S 3|1.8|5|6|7|30:31:32(qc=5)
REM O 2|1.5|12|13|15|20:21(qc=5)
REM Li 1|1.3|8|9|10|10U:20(qc=5)
REM Fe 3|2.2|2.0|1.0|8|9|10|40:41:32(qc=5)
REM Fe d:4.0 
REM
CELL 1.54180    3.99745    5.15358    5.21644  119.60216  112.52943   90.00000
LATT -1
SFAC Li O  S  Fe 
Li     1  0.2760180000000 -0.2239820000000 -0.4479650000000 1.0  -0.09
Li     1 -0.2760180000000  0.2239820000000  0.4479650000000 1.0  -0.09
O      2 -0.5000000000000  0.0000000000000  0.0000000000000 1.0   0.17
S      3  0.0000000000000 -0.5000000000000  0.0000000000000 1.0   0.16
Fe     4  0.0000000000000  0.0000000000000  0.0000000000000 1.0   3.85
END
