TITL LFSO-Li2Fe4S3O2-201025-130838-66ef15 0.7275 447.131546 -11269.05590824 -28.0088 29.1928 22 (P-1) n - 1
REM
REM Run started: Mon, 26 Oct 2020 16:32:50 +0000 in /lustre/scratch/uccabz1/launch_tmp/launcher_2020-10-25-13-08-37-123235
REM CASTEP 20.1 from code version af48c487+ pr-geom-scf-spinfix Tue Jun 2 15:39:59 2020 +0100
REM Functional Perdew Burke Ernzerhof Relativity Koelling-Harmon Dispersion off
REM Cut-off 340.0000 eV Grid scale 1.7500 Gmax 16.5316 1/A FBSC none
REM MP grid 3 3 3 Offset 0.000 0.000 0.000 No. kpts 14 Spacing 0.07
REM Total runtime: 98640 s
REM Overall efficiency: 78.9091 %
REM
REM
REM
REM compiler GCC version 4.9.2
REM options -cpp -iprefix /lustre/shared/ucl/apps/gcc/4.9.2/bin/../lib/gcc/x86_64-unknown-linux-gnu/4.9.2/ -mtune=corei7 -march=x86-64 -g -Og
REM COMMAND_LINE
REM seed 1896299786 517848096 -977758253 -515089853 882103524 1587708459 -1430963523 606125772 -1270333820 -1820746158 -1915326324 30716334
REM
REM S 3|1.8|5|6|7|30:31:32(qc=5)
REM O 2|1.5|12|13|15|20:21(qc=5)
REM Li 1|1.3|8|9|10|10U:20(qc=5)
REM Fe 3|2.2|2.0|1.0|8|9|10|40:41:32(qc=5)
REM Fe d:4.0 
REM
CELL 1.54180   10.89926    9.63127   12.99130   41.67941   29.61175   47.87257
LATT -1
SFAC Li O  S  Fe 
Li     1 -0.2624200000000  0.0830130000000  0.5192040000000 1.0   0.06
Li     1  0.2624200000000 -0.0830130000000 -0.5192040000000 1.0   0.06
Li     1 -0.2759430000000 -0.3574810000000 -0.1358590000000 1.0   0.03
Li     1  0.2759430000000  0.3574810000000  0.1358590000000 1.0   0.03
O      2  0.4759730000000  0.1222370000000  0.1731530000000 1.0  -0.12
O      2 -0.4759730000000 -0.1222370000000 -0.1731530000000 1.0  -0.12
O      2  0.1598110000000 -0.3559310000000  0.0493140000000 1.0  -0.18
O      2 -0.1598110000000  0.3559310000000 -0.0493140000000 1.0  -0.18
S      3 -0.4730120000000 -0.2073220000000  0.5072940000000 1.0  -0.13
S      3  0.4730120000000  0.2073220000000 -0.5072940000000 1.0  -0.13
S      3  0.0894520000000  0.2563160000000  0.1354430000000 1.0  -0.07
S      3 -0.0894520000000 -0.2563160000000 -0.1354430000000 1.0  -0.07
S      3 -0.0598960000000  0.3089000000000 -0.3976500000000 1.0  -0.05
S      3  0.0598960000000 -0.3089000000000  0.3976500000000 1.0  -0.05
Fe     4 -0.5727890000000 -0.1437390000000 -0.2438360000000 1.0  -3.80
Fe     4  0.5727890000000  0.1437390000000  0.2438360000000 1.0  -3.80
Fe     4 -0.2952470000000 -0.0241740000000 -0.0071150000000 1.0  -3.26
Fe     4  0.2952470000000  0.0241740000000  0.0071150000000 1.0  -3.26
Fe     4 -0.0730700000000 -0.3682680000000  0.3495880000000 1.0  -3.78
Fe     4  0.0730700000000  0.3682680000000 -0.3495880000000 1.0  -3.78
Fe     4  0.1198160000000 -0.3520970000000 -0.0708490000000 1.0  -3.71
Fe     4 -0.1198160000000  0.3520970000000  0.0708490000000 1.0  -3.71
END
