TITL LFSO-Li2Fe3S3O-201025-072958-2daf1f 0.0136 162.874430 -4.33597849E+003 11.9999 12.0748 9 (C2) n - 1
REM
REM Run started: Sun, 25 Oct 2020 09:12:32 +0000 in /lustre/scratch/uccabz1/launch_tmp/launcher_2020-10-25-07-29-56-279176
REM CASTEP 20.1 from code version af48c487+ pr-geom-scf-spinfix Tue Jun 2 15:39:59 2020 +0100
REM Functional Perdew Burke Ernzerhof Relativity Koelling-Harmon Dispersion off
REM Cut-off 340.0000 eV Grid scale 1.7500 Gmax 16.5316 1/A FBSC none
REM MP grid 3 3 4 Offset 0.000 0.000 0.000 No. kpts 12 Spacing 0.07
REM Total runtime: 6765.84 s
REM Overall efficiency: 84.5 %
REM
REM
REM
REM compiler GCC version 4.9.2
REM options -cpp -iprefix /lustre/shared/ucl/apps/gcc/4.9.2/bin/../lib/gcc/x86_64-unknown-linux-gnu/4.9.2/ -mtune=corei7 -march=x86-64 -g -Og
REM COMMAND_LINE
REM seed 1167167126 -682572570 1373939331 -418749319 1111398158 251045471 -1882889207 -1859979605 2126028268 -1238537543 -2056683683 1521764509
REM
REM S 3|1.8|5|6|7|30:31:32(qc=5)
REM O 2|1.5|12|13|15|20:21(qc=5)
REM Li 1|1.3|8|9|10|10U:20(qc=5)
REM Fe 3|2.2|2.0|1.0|8|9|10|40:41:32(qc=5)
REM Fe d:4.0 
REM
CELL 1.54180    6.74411    6.74411    3.68415   89.30564   89.30564   76.43746
LATT -1
SFAC Li O  S  Fe 
Li     1 -0.1537680000000 -0.0989220000000 -0.0686870000000 1.0  -0.05
Li     1  0.0989220000000  0.1537680000000  0.0686870000000 1.0  -0.05
O      2 -0.1898710000000  0.1898710000000  0.0000000000000 1.0   0.12
S      3  0.3416140000000  0.2260530000000 -0.4560040000000 1.0   0.12
S      3 -0.2260530000000 -0.3416140000000  0.4560040000000 1.0   0.12
S      3  0.2313120000000 -0.2313120000000  0.0000000000000 1.0   0.12
Fe     4  0.1348150000000 -0.4397390000000 -0.4779630000000 1.0   3.86
Fe     4  0.4397390000000 -0.1348150000000  0.4779630000000 1.0   3.86
Fe     4 -0.2951060000000  0.2951060000000  0.5000000000000 1.0   3.90
END
