TITL LFSO-Li4Fe3S3O2-201028-233543-c32581 0.0238 205.939108 -5.17219750E+003 12.0000 12.1686 12 (R3) n - 1
REM
REM Run started: Thu, 29 Oct 2020 00:05:35 +0000 in /scratch/scratch/uccabz1/launch_tmp/launcher_2020-10-28-23-35-04-158733
REM CASTEP 19.11| from code version Version unavailable
REM Functional Perdew Burke Ernzerhof Relativity Koelling-Harmon Dispersion off
REM Cut-off 340.0000 eV Grid scale 1.7500 Gmax 16.5316 1/A FBSC none
REM MP grid 3 3 3 Offset 0.000 0.000 0.000 No. kpts 6 Spacing 0.07
REM Total runtime: 1862.83 s
REM Overall efficiency: 73.5 %
REM
REM
REM
REM compiler GCC version 4.9.2
REM options -cpp -iprefix /scratch/UCL/applications/gcc/4.9.2/bin/../lib/gcc/x86_64-unknown-linux-gnu/4.9.2/ -mtune=corei7 -march=x86-64 -g -O2
REM COMMAND_LINE
REM seed 898049807 743350390 -1618031428 -2028778229 878361299 1264911923 850109605 -471312503 134842317 -292038381 -162255180 -2003137041
REM
REM S 3|1.8|5|6|7|30:31:32(qc=5)
REM O 2|1.5|12|13|15|20:21(qc=5)
REM Li 1|1.3|8|9|10|10U:20(qc=5)
REM Fe 3|2.2|2.0|1.0|8|9|10|40:41:32(qc=5)
REM Fe d:4.0 
REM
CELL 1.54180    6.95489    6.95489    6.34762   56.78142   56.78142   60.00000
LATT -1
SFAC Li O  S  Fe 
Li     1 -0.0324630000000  0.3780310000000 -0.0276350000000 1.0  -0.06
Li     1  0.3780310000000 -0.3179330000000 -0.0276350000000 1.0  -0.06
Li     1 -0.3179330000000 -0.0324630000000 -0.0276350000000 1.0  -0.06
Li     1  0.3140800000000  0.3140800000000  0.0577600000000 1.0  -0.02
O      2  0.1864490000000  0.1864490000000 -0.5593480000000 1.0   0.14
O      2 -0.1670170000000 -0.1670170000000 -0.4989490000000 1.0   0.17
S      3  0.0374190000000 -0.3219130000000 -0.0369880000000 1.0   0.08
S      3 -0.3219130000000  0.3214830000000 -0.0369880000000 1.0   0.08
S      3  0.3214830000000  0.0374190000000 -0.0369880000000 1.0   0.08
Fe     4 -0.4849810000000  0.0733270000000  0.4678400000000 1.0   3.88
Fe     4  0.0733270000000 -0.0561860000000  0.4678400000000 1.0   3.88
Fe     4 -0.0561860000000 -0.4849810000000  0.4678400000000 1.0   3.88
END
