TITL LFSO-Li4Fe3S3O2-201028-214454-1e61e2 -0.0175 579.653298 -1.03395859E+004 21.8311 22.4130 24 (Ama2) n - 1
REM
REM Run started: Thu, 29 Oct 2020 02:02:30 +0000 in /lustre/scratch/uccabz1/launch_tmp/launcher_2020-10-28-22-59-07-589212
REM CASTEP 20.1 from code version af48c487+ pr-geom-scf-spinfix Tue Jun 2 15:39:59 2020 +0100
REM Functional Perdew Burke Ernzerhof Relativity Koelling-Harmon Dispersion off
REM Cut-off 340.0000 eV Grid scale 1.7500 Gmax 16.5316 1/A FBSC none
REM MP grid 2 2 2 Offset 0.000 0.000 0.000 No. kpts 2 Spacing 0.07
REM Total runtime: 15771.6 s
REM Overall efficiency: 77 %
REM
REM
REM
REM compiler GCC version 4.9.2
REM options -cpp -iprefix /lustre/shared/ucl/apps/gcc/4.9.2/bin/../lib/gcc/x86_64-unknown-linux-gnu/4.9.2/ -mtune=corei7 -march=x86-64 -g -Og
REM COMMAND_LINE
REM seed 801173063 699768829 -490771716 628087424 2074233012 -206643529 539972261 415252774 -841430916 1723681970 -177496451 288276285
REM
REM S 3|1.8|5|6|7|30:31:32(qc=5)
REM O 2|1.5|12|13|15|20:21(qc=5)
REM Li 1|1.3|8|9|10|10U:20(qc=5)
REM Fe 3|2.2|2.0|1.0|8|9|10|40:41:32(qc=5)
REM Fe d:4.0 
REM
CELL 1.54180    8.50663    8.34881    8.34881  102.14978   90.00000   90.00000
LATT -1
SFAC Li O  S  Fe 
Li     1 -0.4240600000000 -0.1873190000000  0.4363980000000 1.0   0.00
Li     1  0.4240600000000  0.4363980000000 -0.1873190000000 1.0   0.00
Li     1  0.0759400000000  0.4363980000000 -0.1873190000000 1.0   0.00
Li     1 -0.0759400000000 -0.1873190000000  0.4363980000000 1.0   0.00
Li     1  0.5339140000000  0.1829310000000 -0.3909220000000 1.0  -0.02
Li     1 -0.5339140000000 -0.3909220000000  0.1829310000000 1.0  -0.02
Li     1  0.0339140000000 -0.3909220000000  0.1829310000000 1.0  -0.02
Li     1 -0.0339140000000  0.1829310000000 -0.3909220000000 1.0  -0.02
O      2 -0.4359210000000 -0.1853060000000  0.2132680000000 1.0   0.13
O      2  0.4359210000000  0.2132680000000 -0.1853060000000 1.0   0.13
O      2  0.0640790000000  0.2132680000000 -0.1853060000000 1.0   0.13
O      2 -0.0640790000000 -0.1853060000000  0.2132680000000 1.0   0.13
S      3 -0.0783700000000  0.4522110000000 -0.4276090000000 1.0   0.13
S      3  0.0783700000000 -0.4276090000000  0.4522110000000 1.0   0.13
S      3  0.4216300000000 -0.4276090000000  0.4522110000000 1.0   0.13
S      3 -0.4216300000000  0.4522110000000 -0.4276090000000 1.0   0.13
S      3 -0.2500000000000 -0.0043490000000 -0.3619850000000 1.0   0.06
S      3  0.2500000000000 -0.3619850000000 -0.0043490000000 1.0   0.06
Fe     4  0.0765760000000 -0.1128300000000  0.0601570000000 1.0   3.47
Fe     4 -0.0765760000000  0.0601570000000 -0.1128300000000 1.0   3.47
Fe     4 -0.4234240000000  0.0601570000000 -0.1128300000000 1.0   3.47
Fe     4  0.4234240000000 -0.1128300000000  0.0601570000000 1.0   3.47
Fe     4  0.2500000000000  0.1104440000000 -0.1056040000000 1.0   3.44
Fe     4 -0.2500000000000 -0.1056040000000  0.1104440000000 1.0   3.44
END
