TITL LFSO-Li6FeSO3-201028-051427-d76810 -0.0093 157.724092 -3.67783808E+003 3.94457 4.05192 11 (P3) n - 1
REM
REM Run started: Wed, 28 Oct 2020 06:31:24 +0000 in /lustre/scratch/uccabz1/launch_tmp/launcher_2020-10-28-05-14-25-541843
REM CASTEP 20.1 from code version af48c487+ pr-geom-scf-spinfix Tue Jun 2 15:39:59 2020 +0100
REM Functional Perdew Burke Ernzerhof Relativity Koelling-Harmon Dispersion off
REM Cut-off 340.0000 eV Grid scale 1.7500 Gmax 16.5316 1/A FBSC none
REM MP grid 5 3 3 Offset 0.000 0.000 0.000 No. kpts 13 Spacing 0.07
REM Total runtime: 4690.65 s
REM Overall efficiency: 74.25 %
REM
REM
REM
REM compiler GCC version 4.9.2
REM options -cpp -iprefix /lustre/shared/ucl/apps/gcc/4.9.2/bin/../lib/gcc/x86_64-unknown-linux-gnu/4.9.2/ -mtune=corei7 -march=x86-64 -g -Og
REM COMMAND_LINE
REM seed -1999052254 1897915411 -885682220 -562862457 2147114382 1935218323 -1189934780 -409256289 -796120379 -1822474817 357140173 -1547232821
REM
REM S 3|1.8|5|6|7|30:31:32(qc=5)
REM O 2|1.5|12|13|15|20:21(qc=5)
REM Li 1|1.3|8|9|10|10U:20(qc=5)
REM Fe 3|2.2|2.0|1.0|8|9|10|40:41:32(qc=5)
REM Fe d:4.0 
REM
CELL 1.54180    3.00261    7.78815    7.78815  120.00000   90.00000   90.00000
LATT -1
SFAC Li O  S  Fe 
Li     1 -0.5325550000000  0.4236350000000 -0.0427270000000 1.0  -0.02
Li     1 -0.5325550000000  0.5336370000000 -0.4236350000000 1.0  -0.02
Li     1 -0.5325550000000  0.0427270000000 -0.5336370000000 1.0  -0.02
Li     1  0.4674820000000 -0.2418210000000  0.0415100000000 1.0  -0.00
Li     1  0.4674820000000  0.2833310000000  0.2418210000000 1.0  -0.00
Li     1  0.4674820000000 -0.0415100000000 -0.2833310000000 1.0  -0.00
O      2 -0.0343650000000 -0.4143480000000  0.0519080000000 1.0   0.10
O      2 -0.0343650000000  0.4662560000000  0.4143480000000 1.0   0.10
O      2 -0.0343650000000 -0.0519080000000 -0.4662560000000 1.0   0.10
S      3 -0.0552580000000  0.0000000000000  0.0000000000000 1.0   0.00
Fe     4 -0.0319730000000 -0.3333330000000  0.3333330000000 1.0   3.71
END
