TITL LFSO-Li5FeSO3-201026-055118-60dae9 -0.0086 131.602482 -3.48002165E+003 4.99969 5.02935 10 (Cm) n - 1
REM
REM Run started: Mon, 26 Oct 2020 06:46:08 +0000 in /lustre/scratch/uccabz1/launch_tmp/launcher_2020-10-26-05-51-17-163092
REM CASTEP 20.1 from code version af48c487+ pr-geom-scf-spinfix Tue Jun 2 15:39:59 2020 +0100
REM Functional Perdew Burke Ernzerhof Relativity Koelling-Harmon Dispersion off
REM Cut-off 340.0000 eV Grid scale 1.7500 Gmax 16.5316 1/A FBSC none
REM MP grid 5 3 3 Offset 0.000 0.000 0.000 No. kpts 16 Spacing 0.07
REM Total runtime: 3216.7 s
REM Overall efficiency: 81.2308 %
REM
REM
REM
REM compiler GCC version 4.9.2
REM options -cpp -iprefix /lustre/shared/ucl/apps/gcc/4.9.2/bin/../lib/gcc/x86_64-unknown-linux-gnu/4.9.2/ -mtune=corei7 -march=x86-64 -g -Og
REM COMMAND_LINE
REM seed 434664547 2052483553 1328040633 -689843883 1594329598 -1174027167 1021156644 -1419371326 -595311359 -963130080 -1178104334 -594050072
REM
REM S 3|1.8|5|6|7|30:31:32(qc=5)
REM O 2|1.5|12|13|15|20:21(qc=5)
REM Li 1|1.3|8|9|10|10U:20(qc=5)
REM Fe 3|2.2|2.0|1.0|8|9|10|40:41:32(qc=5)
REM Fe d:4.0 
REM
CELL 1.54180    3.54660    6.20499    6.20499   93.48884   79.72881   79.72881
LATT -1
SFAC Li O  S  Fe 
Li     1 -0.0198280000000 -0.2996400000000  0.3825580000000 1.0  -0.01
Li     1 -0.0198280000000  0.3825580000000 -0.2996400000000 1.0  -0.01
Li     1 -0.3311230000000 -0.2645340000000  0.0163860000000 1.0   0.01
Li     1 -0.3311230000000  0.0163860000000 -0.2645340000000 1.0   0.01
Li     1 -0.5896190000000 -0.3652490000000 -0.3652490000000 1.0   0.00
O      2  0.5437070000000  0.2751420000000 -0.4051580000000 1.0   0.31
O      2  0.5437070000000 -0.4051580000000  0.2751420000000 1.0   0.31
O      2 -0.1376640000000 -0.2931340000000 -0.2931340000000 1.0   0.01
S      3  0.1964230000000  0.0972500000000  0.0972500000000 1.0   0.33
Fe     4  0.5923690000000  0.2898970000000  0.2898970000000 1.0   4.04
END
