TITL LFSO-Li2Fe4S4O-201023-083012-387a7e 0.0462 287.917250 -5.50039010E+003 15.9994 16.1746 11 (C2) n - 1
REM
REM Run started: Fri, 23 Oct 2020 11:47:41 +0100 in /lustre/scratch/uccabz1/launch_tmp/launcher_2020-10-23-07-30-10-494852
REM CASTEP 20.1 from code version af48c487+ pr-geom-scf-spinfix Tue Jun 2 15:39:59 2020 +0100
REM Functional Perdew Burke Ernzerhof Relativity Koelling-Harmon Dispersion off
REM Cut-off 340.0000 eV Grid scale 1.7500 Gmax 16.5316 1/A FBSC none
REM MP grid 5 2 2 Offset 0.000 0.000 0.000 No. kpts 8 Spacing 0.07
REM Total runtime: 12936.9 s
REM Overall efficiency: 79.4615 %
REM
REM
REM
REM compiler GCC version 4.9.2
REM options -cpp -iprefix /lustre/shared/ucl/apps/gcc/4.9.2/bin/../lib/gcc/x86_64-unknown-linux-gnu/4.9.2/ -mtune=corei7 -march=x86-64 -g -Og
REM COMMAND_LINE
REM seed -1569019192 406948158 -372086887 -1705202498 1871972145 -1614058047 -30620044 -1118106902 -57870416 721624070 287429711 1204204605
REM
REM S 3|1.8|5|6|7|30:31:32(qc=5)
REM O 2|1.5|12|13|15|20:21(qc=5)
REM Li 1|1.3|8|9|10|10U:20(qc=5)
REM Fe 3|2.2|2.0|1.0|8|9|10|40:41:32(qc=5)
REM Fe d:4.0 
REM
CELL 1.54180    3.55114    9.13956    9.13956   94.69486   81.15147   81.15147
LATT -1
SFAC Li O  S  Fe 
Li     1 -0.1723210000000  0.4229950000000  0.2336000000000 1.0  -0.01
Li     1  0.1723210000000 -0.2336000000000 -0.4229950000000 1.0  -0.01
O      2  0.0000000000000  0.1710780000000 -0.1710780000000 1.0   0.25
S      3  0.3840610000000 -0.2301600000000 -0.1699760000000 1.0   0.16
S      3 -0.3840610000000  0.1699760000000  0.2301600000000 1.0   0.16
S      3  0.3543250000000 -0.4786970000000  0.0904430000000 1.0   0.12
S      3 -0.3543250000000 -0.0904430000000  0.4786970000000 1.0   0.12
Fe     4  0.4026980000000  0.0144660000000 -0.2552530000000 1.0   3.84
Fe     4 -0.4026980000000  0.2552530000000 -0.0144660000000 1.0   3.84
Fe     4 -0.1444050000000 -0.3292840000000 -0.0198350000000 1.0   3.77
Fe     4  0.1444050000000  0.0198350000000  0.3292840000000 1.0   3.77
END
