TITL LFSO-Li6FeS3O-201027-142500-5f9870 0.0260 342.451318 -6.82250762E+003 7.97929 8.21922 22 (P21/c) n - 1
REM
REM Run started: Tue, 27 Oct 2020 15:45:35 +0000 in /lustre/scratch/uccabz1/launch_tmp/launcher_2020-10-27-14-24-58-376489
REM CASTEP 20.1 from code version af48c487+ pr-geom-scf-spinfix Tue Jun 2 15:39:59 2020 +0100
REM Functional Perdew Burke Ernzerhof Relativity Koelling-Harmon Dispersion off
REM Cut-off 340.0000 eV Grid scale 1.7500 Gmax 16.5316 1/A FBSC none
REM MP grid 4 3 2 Offset 0.000 0.000 0.000 No. kpts 8 Spacing 0.07
REM Total runtime: 5742.78 s
REM Overall efficiency: 77.875 %
REM
REM
REM
REM compiler GCC version 4.9.2
REM options -cpp -iprefix /lustre/shared/ucl/apps/gcc/4.9.2/bin/../lib/gcc/x86_64-unknown-linux-gnu/4.9.2/ -mtune=corei7 -march=x86-64 -g -Og
REM COMMAND_LINE
REM seed 1794305424 882353799 -1477609478 -652480810 -1163733241 1241176510 -412073527 -215402241 805505952 2029405540 -2067288961 1430561206
REM
REM S 3|1.8|5|6|7|30:31:32(qc=5)
REM O 2|1.5|12|13|15|20:21(qc=5)
REM Li 1|1.3|8|9|10|10U:20(qc=5)
REM Fe 3|2.2|2.0|1.0|8|9|10|40:41:32(qc=5)
REM Fe d:4.0 
REM
CELL 1.54180    5.95874    7.04087   10.10308   90.00000   53.89248   90.00000
LATT -1
SFAC Li O  S  Fe 
Li     1  0.2932150000000  0.3400340000000 -0.0103550000000 1.0   0.00
Li     1 -0.2932150000000 -0.1599660000000  0.5103550000000 1.0   0.00
Li     1 -0.2932150000000 -0.3400340000000  0.0103550000000 1.0   0.00
Li     1  0.2932150000000  0.1599660000000 -0.5103550000000 1.0   0.00
Li     1 -0.3071550000000  0.1847820000000 -0.3960230000000 1.0  -0.03
Li     1  0.3071550000000 -0.3152180000000 -0.1039770000000 1.0  -0.03
Li     1  0.3071550000000 -0.1847820000000  0.3960230000000 1.0  -0.03
Li     1 -0.3071550000000  0.3152180000000  0.1039770000000 1.0  -0.03
Li     1 -0.1301760000000 -0.4365050000000  0.2174260000000 1.0  -0.02
Li     1  0.1301760000000  0.0634950000000  0.2825740000000 1.0  -0.02
Li     1  0.1301760000000  0.4365050000000 -0.2174260000000 1.0  -0.02
Li     1 -0.1301760000000 -0.0634950000000 -0.2825740000000 1.0  -0.02
O      2  0.0000000000000  0.5000000000000 -0.0000000000000 1.0   0.02
O      2  0.0000000000000 -0.0000000000000  0.5000000000000 1.0   0.02
S      3  0.2722860000000  0.0018350000000 -0.2747020000000 1.0   0.05
S      3 -0.2722860000000 -0.4981650000000 -0.2252980000000 1.0   0.05
S      3 -0.2722860000000 -0.0018350000000  0.2747020000000 1.0   0.05
S      3  0.2722860000000  0.4981650000000  0.2252980000000 1.0   0.05
S      3  0.5000000000000 -0.0000000000000 -0.0000000000000 1.0   0.20
S      3  0.5000000000000 -0.5000000000000 -0.5000000000000 1.0   0.20
Fe     4  0.0000000000000 -0.0000000000000 -0.0000000000000 1.0   3.77
Fe     4  0.0000000000000  0.5000000000000  0.5000000000000 1.0   3.77
END
