TITL LFSO-Li6FeS3O-201027-183921-5f1baa -0.0968 424.248128 -6.82238885E+003 8.00000 8.30996 22 (P3) n - 1
REM
REM Run started: Wed, 28 Oct 2020 04:46:42 +0000 in /lustre/scratch/uccabz1/launch_tmp/launcher_2020-10-27-18-39-20-004650
REM CASTEP 20.1 from code version af48c487+ pr-geom-scf-spinfix Tue Jun 2 15:39:59 2020 +0100
REM Functional Perdew Burke Ernzerhof Relativity Koelling-Harmon Dispersion off
REM Cut-off 340.0000 eV Grid scale 1.7500 Gmax 16.5316 1/A FBSC none
REM MP grid 3 2 2 Offset 0.000 0.000 0.000 No. kpts 6 Spacing 0.07
REM Total runtime: 39031.6 s
REM Overall efficiency: 96.1538 %
REM
REM
REM
REM compiler GCC version 4.9.2
REM options -cpp -iprefix /lustre/shared/ucl/apps/gcc/4.9.2/bin/../lib/gcc/x86_64-unknown-linux-gnu/4.9.2/ -mtune=corei7 -march=x86-64 -g -Og
REM COMMAND_LINE
REM seed 877439466 1016494133 -1698853149 958028080 -1453532021 -2115450225 -191377202 297827358 -1608504825 914528999 1309055539 -1281395890
REM
REM S 3|1.8|5|6|7|30:31:32(qc=5)
REM O 2|1.5|12|13|15|20:21(qc=5)
REM Li 1|1.3|8|9|10|10U:20(qc=5)
REM Fe 3|2.2|2.0|1.0|8|9|10|40:41:32(qc=5)
REM Fe d:4.0 
REM
CELL 1.54180    5.71290    9.26011    9.26011  120.00000   90.00000   90.00000
LATT -1
SFAC Li O  S  Fe 
Li     1 -0.0441950000000 -0.0420590000000  0.1542070000000 1.0   0.02
Li     1 -0.0441950000000  0.1962660000000  0.0420590000000 1.0   0.02
Li     1 -0.0441950000000 -0.1542070000000 -0.1962660000000 1.0   0.02
Li     1  0.3882170000000 -0.4746940000000  0.1451620000000 1.0  -0.01
Li     1  0.3882170000000 -0.3801440000000  0.4746940000000 1.0  -0.01
Li     1  0.3882170000000 -0.1451620000000  0.3801440000000 1.0  -0.01
Li     1 -0.1383180000000  0.5176420000000 -0.0447520000000 1.0  -0.05
Li     1 -0.1383180000000 -0.5623940000000 -0.5176420000000 1.0  -0.05
Li     1 -0.1383180000000  0.0447520000000  0.5623940000000 1.0  -0.05
Li     1  0.3551070000000 -0.2001030000000 -0.0446530000000 1.0   0.01
Li     1  0.3551070000000  0.1554500000000  0.2001030000000 1.0   0.01
Li     1  0.3551070000000  0.0446530000000 -0.1554500000000 1.0   0.01
O      2  0.1576130000000  0.0000000000000 -0.0000000000000 1.0   0.01
O      2  0.2133460000000 -0.3333330000000  0.3333330000000 1.0   0.10
S      3 -0.3391110000000  0.3790140000000  0.2437980000000 1.0   0.03
S      3 -0.3391110000000 -0.1352160000000 -0.3790140000000 1.0   0.03
S      3 -0.3391110000000 -0.2437980000000  0.1352160000000 1.0   0.03
S      3  0.1543740000000  0.1042410000000  0.4117600000000 1.0   0.10
S      3  0.1543740000000  0.3075180000000 -0.1042410000000 1.0   0.10
S      3  0.1543740000000 -0.4117600000000 -0.3075180000000 1.0   0.10
Fe     4 -0.1190470000000 -0.3333330000000  0.3333330000000 1.0   3.90
Fe     4  0.1942030000000  0.3333330000000 -0.3333330000000 1.0   3.70
END
