TITL LFSO-Li2Fe4S4O-201023-041017-a1632b -0.0715 543.911208 -1.10037085E+004 32.0000 32.3731 22 (P21) n - 1
REM
REM Run started: Sat, 24 Oct 2020 06:49:30 +0100 in /lustre/scratch/uccabz1/launch_tmp/launcher_2020-10-23-03-10-15-462940
REM CASTEP 20.1 from code version af48c487+ pr-geom-scf-spinfix Tue Jun 2 15:39:59 2020 +0100
REM Functional Perdew Burke Ernzerhof Relativity Koelling-Harmon Dispersion off
REM Cut-off 340.0000 eV Grid scale 1.7500 Gmax 16.5316 1/A FBSC none
REM MP grid 2 3 2 Offset 0.000 0.000 0.000 No. kpts 4 Spacing 0.07
REM Total runtime: 102688 s
REM Overall efficiency: 75.1538 %
REM
REM
REM
REM compiler GCC version 4.9.2
REM options -cpp -iprefix /lustre/shared/ucl/apps/gcc/4.9.2/bin/../lib/gcc/x86_64-unknown-linux-gnu/4.9.2/ -mtune=corei7 -march=x86-64 -g -Og
REM COMMAND_LINE
REM seed 61759801 1780123750 -506142970 -1470072330 1398460265 -2071214648 982892656 -1930874520 -411569596 -279859961 125953425 -2144299558
REM
REM S 3|1.8|5|6|7|30:31:32(qc=5)
REM O 2|1.5|12|13|15|20:21(qc=5)
REM Li 1|1.3|8|9|10|10U:20(qc=5)
REM Fe 3|2.2|2.0|1.0|8|9|10|40:41:32(qc=5)
REM Fe d:4.0 
REM
CELL 1.54180    9.76847    6.48712   11.51033   90.00000  131.78110   90.00000
LATT -1
SFAC Li O  S  Fe 
Li     1 -0.3044410000000  0.4581570000000  0.4917360000000 1.0  -0.03
Li     1  0.3044410000000 -0.0418430000000 -0.4917360000000 1.0  -0.03
Li     1  0.0295650000000  0.2629660000000  0.0646750000000 1.0  -0.05
Li     1 -0.0295650000000 -0.2370340000000 -0.0646750000000 1.0  -0.05
O      2 -0.0950530000000  0.5393450000000  0.0030550000000 1.0   0.17
O      2  0.0950530000000  0.0393450000000 -0.0030550000000 1.0   0.17
S      3 -0.0675920000000 -0.2381530000000  0.3578490000000 1.0   0.12
S      3  0.0675920000000  0.2618470000000 -0.3578490000000 1.0   0.12
S      3  0.4042350000000 -0.3214970000000 -0.3004830000000 1.0   0.14
S      3 -0.4042350000000  0.1785030000000  0.3004830000000 1.0   0.14
S      3  0.0786180000000  0.2500280000000  0.3130670000000 1.0   0.15
S      3 -0.0786180000000 -0.2499720000000 -0.3130670000000 1.0   0.15
S      3 -0.5927970000000 -0.2778700000000  0.3651940000000 1.0   0.15
S      3  0.5927970000000  0.2221300000000 -0.3651940000000 1.0   0.15
Fe     4 -0.1043180000000  0.1211270000000  0.3801890000000 1.0   3.87
Fe     4  0.1043180000000 -0.3788730000000 -0.3801890000000 1.0   3.87
Fe     4 -0.3396860000000  0.4675580000000 -0.1814490000000 1.0   3.77
Fe     4  0.3396860000000 -0.0324420000000  0.1814490000000 1.0   3.77
Fe     4  0.3438150000000  0.4807320000000 -0.5120610000000 1.0   3.87
Fe     4 -0.3438150000000 -0.0192680000000  0.5120610000000 1.0   3.87
Fe     4 -0.0604050000000 -0.4237370000000  0.1891970000000 1.0   3.84
Fe     4  0.0604050000000  0.0762630000000 -0.1891970000000 1.0   3.84
END
