TITL LFSO-Li2Fe3S2O2-201022-081440-3163d0 -0.0525 357.485209 -8.93785024E+003 24.0000 24.2446 18 (P3) n - 1
REM
REM Run started: Thu, 22 Oct 2020 13:20:46 +0100 in /scratch/scratch/uccabz1/launch_tmp/launcher_2020-10-22-07-14-38-099556
REM CASTEP 19.11| from code version Version unavailable
REM Functional Perdew Burke Ernzerhof Relativity Koelling-Harmon Dispersion off
REM Cut-off 340.0000 eV Grid scale 1.7500 Gmax 16.5316 1/A FBSC none
REM MP grid 4 2 2 Offset 0.000 0.000 0.000 No. kpts 8 Spacing 0.07
REM Total runtime: 19485.9 s
REM Overall efficiency: 72.1 %
REM
REM
REM
REM compiler GCC version 4.9.2
REM options -cpp -iprefix /scratch/UCL/applications/gcc/4.9.2/bin/../lib/gcc/x86_64-unknown-linux-gnu/4.9.2/ -mtune=corei7 -march=x86-64 -g -O2
REM COMMAND_LINE
REM seed -1201460217 -1961328620 -1698853149 -2136241022 136092286 -336451160 -681536565 -1544935979 812038217 1751812210 -1314704287 1670692276
REM
REM S 3|1.8|5|6|7|30:31:32(qc=5)
REM O 2|1.5|12|13|15|20:21(qc=5)
REM Li 1|1.3|8|9|10|10U:20(qc=5)
REM Fe 3|2.2|2.0|1.0|8|9|10|40:41:32(qc=5)
REM Fe d:4.0 
REM
CELL 1.54180    4.09185   10.04394   10.04394  120.00000   90.00000   90.00000
LATT -1
SFAC Li O  S  Fe 
Li     1  0.0606130000000  0.3916680000000  0.2015840000000 1.0  -0.07
Li     1  0.0606130000000 -0.1900840000000 -0.3916680000000 1.0  -0.07
Li     1  0.0606130000000 -0.2015840000000  0.1900840000000 1.0  -0.07
Li     1  0.5994820000000 -0.3333330000000  0.3333330000000 1.0  -0.04
O      2  0.2241800000000  0.0052980000000 -0.3130630000000 1.0   0.19
O      2  0.2241800000000 -0.3183610000000 -0.0052980000000 1.0   0.19
O      2  0.2241800000000  0.3130630000000  0.3183610000000 1.0   0.19
O      2  0.5587260000000 -0.0000000000000  0.0000000000000 1.0   0.18
S      3 -0.3128480000000  0.0241370000000  0.3745830000000 1.0   0.06
S      3 -0.3128480000000  0.3504460000000 -0.0241370000000 1.0   0.06
S      3 -0.3128480000000 -0.3745830000000 -0.3504460000000 1.0   0.06
S      3  0.0991000000000 -0.3333330000000  0.3333330000000 1.0   0.05
Fe     4 -0.4858850000000  0.1398100000000  0.2237950000000 1.0   3.86
Fe     4 -0.4858850000000  0.0839850000000 -0.1398100000000 1.0   3.86
Fe     4 -0.4858850000000 -0.2237950000000 -0.0839850000000 1.0   3.86
Fe     4  0.1894100000000  0.0321850000000 -0.4864160000000 1.0   3.89
Fe     4  0.1894100000000  0.4813990000000 -0.0321850000000 1.0   3.89
Fe     4  0.1894100000000  0.4864160000000 -0.4813990000000 1.0   3.89
END
