TITL LFSO-Li5FeSO3-201026-150053-6c9ccf -0.5840 335.018914 -6.95528119E+003 -9.99768 10.1041 20 (R3) n - 1
REM
REM Run started: Mon, 26 Oct 2020 23:26:19 +0000 in /scratch/scratch/uccabz1/launch_tmp/launcher_2020-10-26-23-17-28-098747
REM CASTEP 19.11| from code version Version unavailable
REM Functional Perdew Burke Ernzerhof Relativity Koelling-Harmon Dispersion off
REM Cut-off 340.0000 eV Grid scale 1.7500 Gmax 16.5316 1/A FBSC none
REM MP grid 3 3 3 Offset 0.000 0.000 0.000 No. kpts 6 Spacing 0.07
REM Total runtime: 29019.8 s
REM Overall efficiency: 89.9 %
REM
REM
REM
REM compiler GCC version 4.9.2
REM options -cpp -iprefix /lustre/shared/ucl/apps/gcc/4.9.2/bin/../lib/gcc/x86_64-unknown-linux-gnu/4.9.2/ -mtune=corei7 -march=x86-64 -g -Og
REM COMMAND_LINE
REM seed -188018213 -1478830434 1995509077 1962516484 -2106255897 -1520456979 -568379781 1151776786 920445095 431490413 672664070 -349162530
REM
REM S 3|1.8|5|6|7|30:31:32(qc=5)
REM O 2|1.5|12|13|15|20:21(qc=5)
REM Li 1|1.3|8|9|10|10U:20(qc=5)
REM Fe 3|2.2|2.0|1.0|8|9|10|40:41:32(qc=5)
REM Fe d:4.0 
REM
CELL 1.54180   10.29732   10.29732   10.29732   35.85765   35.85765   35.85765
LATT -1
SFAC Li O  S  Fe 
Li     1 -0.3420230000000  0.2358450000000  0.3185080000000 1.0  -0.02
Li     1  0.2358450000000  0.3185080000000 -0.3420230000000 1.0  -0.02
Li     1  0.3185080000000 -0.3420230000000  0.2358450000000 1.0  -0.02
Li     1  0.1055360000000  0.1144020000000 -0.4746810000000 1.0  -0.03
Li     1  0.1144020000000 -0.4746810000000  0.1055360000000 1.0  -0.03
Li     1 -0.4746810000000  0.1055360000000  0.1144020000000 1.0  -0.03
Li     1  0.2017300000000 -0.2052170000000 -0.4921860000000 1.0   0.06
Li     1 -0.2052170000000 -0.4921860000000  0.2017300000000 1.0   0.06
Li     1 -0.4921860000000  0.2017300000000 -0.2052170000000 1.0   0.06
Li     1 -0.2934660000000 -0.2934660000000 -0.2934660000000 1.0   0.04
O      2  0.3925130000000 -0.1224710000000  0.3995350000000 1.0  -0.31
O      2 -0.1224710000000  0.3995350000000  0.3925130000000 1.0  -0.31
O      2  0.3995350000000  0.3925130000000 -0.1224710000000 1.0  -0.31
O      2  0.5407750000000  0.0751870000000 -0.3250070000000 1.0  -0.25
O      2  0.0751870000000 -0.3250070000000  0.5407750000000 1.0  -0.25
O      2 -0.3250070000000  0.5407750000000  0.0751870000000 1.0  -0.25
S      3  0.3296910000000  0.3296910000000  0.3296910000000 1.0  -0.08
S      3 -0.1338990000000 -0.1338990000000 -0.1338990000000 1.0  -0.27
Fe     4 -0.2115000000000 -0.2115000000000 -0.2115000000000 1.0  -3.94
Fe     4 -0.4266930000000 -0.4266930000000 -0.4266930000000 1.0  -4.10
END
