TITL LFSO-Li2FeSO-201025-025305-814873 -0.0029 66.465475 -2.00310840E+003 3.99902 4.06945 5 (R3m) n - 1
REM
REM Run started: Sun, 25 Oct 2020 03:24:49 +0000 in /lustre/scratch/uccabz1/launch_tmp/launcher_2020-10-25-02-53-09-996180
REM CASTEP 20.1 from code version af48c487+ pr-geom-scf-spinfix Tue Jun 2 15:39:59 2020 +0100
REM Functional Perdew Burke Ernzerhof Relativity Koelling-Harmon Dispersion off
REM Cut-off 340.0000 eV Grid scale 1.7500 Gmax 16.5316 1/A FBSC none
REM MP grid 5 5 5 Offset 0.000 0.000 0.000 No. kpts 19 Spacing 0.07
REM Total runtime: 2218.48 s
REM Overall efficiency: 67.6667 %
REM
REM
REM
REM compiler GCC version 4.9.2
REM options -cpp -iprefix /lustre/shared/ucl/apps/gcc/4.9.2/bin/../lib/gcc/x86_64-unknown-linux-gnu/4.9.2/ -mtune=corei7 -march=x86-64 -g -Og
REM COMMAND_LINE
REM seed 1258605089 -894903786 697674651 -2101191220 -195189280 328081884 1364725195 -387851495 -1911194231 2036572170 -744146064 1971953304
REM
REM S 3|1.8|5|6|7|30:31:32(qc=5)
REM O 2|1.5|12|13|15|20:21(qc=5)
REM Li 1|1.3|8|9|10|10U:20(qc=5)
REM Fe 3|2.2|2.0|1.0|8|9|10|40:41:32(qc=5)
REM Fe d:4.0 
REM
CELL 1.54180    6.79780    6.79780    6.79780   29.27517   29.27517   29.27517
LATT -1
SFAC Li O  S  Fe 
Li     1 -0.5151700000000 -0.5151700000000 -0.5151700000000 1.0  -0.07
Li     1  0.2372310000000  0.2372310000000  0.2372310000000 1.0   0.05
O      2  0.1332110000000  0.1332110000000  0.1332110000000 1.0   0.07
S      3 -0.0254900000000 -0.0254900000000 -0.0254900000000 1.0   0.16
Fe     4 -0.2825040000000 -0.2825040000000 -0.2825040000000 1.0   3.79
END
