TITL LFSO-Li6FeSO3-201028-024346-b33fd7 0.0184 152.179819 -3.67844047E+003 4.00003 4.07570 11 (C2) n - 1
REM
REM Run started: Wed, 28 Oct 2020 03:33:54 +0000 in /scratch/scratch/uccabz1/launch_tmp/launcher_2020-10-28-02-43-45-260250
REM CASTEP 19.11| from code version Version unavailable
REM Functional Perdew Burke Ernzerhof Relativity Koelling-Harmon Dispersion off
REM Cut-off 340.0000 eV Grid scale 1.7500 Gmax 16.5316 1/A FBSC none
REM MP grid 5 3 3 Offset 0.000 0.000 0.000 No. kpts 16 Spacing 0.07
REM Total runtime: 3208.63 s
REM Overall efficiency: 94.3333 %
REM
REM
REM
REM compiler GCC version 4.9.2
REM options -cpp -iprefix /scratch/UCL/applications/gcc/4.9.2/bin/../lib/gcc/x86_64-unknown-linux-gnu/4.9.2/ -mtune=corei7 -march=x86-64 -g -O2
REM COMMAND_LINE
REM seed -199150387 -1438739819 1354624138 906851583 -403784589 -1912013745 -772117753 1637467079 1770457387 394964949 283171207 -563907193
REM
REM S 3|1.8|5|6|7|30:31:32(qc=5)
REM O 2|1.5|12|13|15|20:21(qc=5)
REM Li 1|1.3|8|9|10|10U:20(qc=5)
REM Fe 3|2.2|2.0|1.0|8|9|10|40:41:32(qc=5)
REM Fe d:4.0 
REM
CELL 1.54180    3.30514    6.92798    6.92798   99.17473   98.80378   98.80378
LATT -1
SFAC Li O  S  Fe 
Li     1 -0.0817110000000  0.3695700000000  0.3789050000000 1.0  -0.02
Li     1  0.0817110000000 -0.3789050000000 -0.3695700000000 1.0  -0.02
Li     1  0.0851360000000  0.2678740000000  0.0097850000000 1.0  -0.04
Li     1 -0.0851360000000 -0.0097850000000 -0.2678740000000 1.0  -0.04
Li     1 -0.3629900000000  0.6493350000000 -0.0235690000000 1.0   0.01
Li     1  0.3629900000000  0.0235690000000 -0.6493350000000 1.0   0.01
O      2 -0.0778660000000  0.1218110000000  0.5121780000000 1.0   0.05
O      2  0.0778660000000 -0.5121780000000 -0.1218110000000 1.0   0.05
O      2 -0.5000000000000 -0.4884810000000  0.4884810000000 1.0   0.11
S      3 -0.5000000000000  0.0200810000000 -0.0200810000000 1.0   0.03
Fe     4  0.5000000000000  0.3202360000000 -0.3202360000000 1.0   3.85
END
