TITL LFSO-Li4Fe2S3O-201026-124229-085245 -0.0808 470.361171 -7.73812120E+003 3.43729 15.8839 20 (P3) n - 1
REM
REM Run started: Tue, 27 Oct 2020 00:22:15 +0000 in /lustre/scratch/uccabz1/launch_tmp/launcher_2020-10-26-12-37-27-331568
REM CASTEP 20.1 from code version af48c487+ pr-geom-scf-spinfix Tue Jun 2 15:39:59 2020 +0100
REM Functional Perdew Burke Ernzerhof Relativity Koelling-Harmon Dispersion off
REM Cut-off 340.0000 eV Grid scale 1.7500 Gmax 16.5316 1/A FBSC none
REM MP grid 3 3 2 Offset 0.000 0.000 0.000 No. kpts 5 Spacing 0.07
REM Total runtime: 43344.1 s
REM Overall efficiency: 72.6923 %
REM
REM
REM
REM compiler GCC version 4.9.2
REM options -cpp -iprefix /lustre/shared/ucl/apps/gcc/4.9.2/bin/../lib/gcc/x86_64-unknown-linux-gnu/4.9.2/ -mtune=corei7 -march=x86-64 -g -Og
REM COMMAND_LINE
REM seed -923050962 1601093874 -2094304634 1331349090 -1284329196 415285791 1121158352 208005026 237653821 -144109101 -1579506393 -167389645
REM
REM S 3|1.8|5|6|7|30:31:32(qc=5)
REM O 2|1.5|12|13|15|20:21(qc=5)
REM Li 1|1.3|8|9|10|10U:20(qc=5)
REM Fe 3|2.2|2.0|1.0|8|9|10|40:41:32(qc=5)
REM Fe d:4.0 
REM
CELL 1.54180    7.36642    7.36642   10.00893   90.00000   90.00000  120.00000
LATT -1
SFAC Li O  S  Fe 
Li     1  0.1775130000000 -0.2510660000000 -0.2141310000000 1.0  -0.05
Li     1 -0.4285790000000 -0.1775130000000 -0.2141310000000 1.0  -0.05
Li     1  0.2510660000000  0.4285790000000 -0.2141310000000 1.0  -0.05
Li     1 -0.2961450000000 -0.3476240000000 -0.4929640000000 1.0   0.04
Li     1 -0.0514800000000  0.2961450000000 -0.4929640000000 1.0   0.04
Li     1  0.3476240000000  0.0514800000000 -0.4929640000000 1.0   0.04
Li     1  0.0000000000000 -0.0000000000000 -0.3996560000000 1.0   0.04
Li     1  0.0000000000000 -0.0000000000000  0.2559360000000 1.0  -0.00
O      2  0.0000000000000 -0.0000000000000  0.4300280000000 1.0  -0.87
O      2  0.3333330000000 -0.3333330000000 -0.0941860000000 1.0   0.01
S      3 -0.3669750000000 -0.0399810000000 -0.4193920000000 1.0  -0.23
S      3  0.3269940000000  0.3669750000000 -0.4193920000000 1.0  -0.23
S      3  0.0399810000000 -0.3269940000000 -0.4193920000000 1.0  -0.23
S      3  0.6285010000000  0.6597660000000  0.2585160000000 1.0  -0.22
S      3  0.0312660000000 -0.6285010000000  0.2585160000000 1.0  -0.22
S      3 -0.6597660000000 -0.0312660000000  0.2585160000000 1.0  -0.22
Fe     4  0.3731550000000 -0.1167210000000  0.0566350000000 1.0   3.18
Fe     4 -0.4898760000000 -0.3731550000000  0.0566350000000 1.0   3.18
Fe     4  0.1167210000000  0.4898760000000  0.0566350000000 1.0   3.18
Fe     4  0.3333330000000 -0.3333330000000  0.3730340000000 1.0  -3.88
END
