TITL LFSO-Li2Fe3S2O2-201022-111628-8739d0 -0.0631 214.222370 -4.46765349E+003 12.0000 12.2300 9 (R-3m) n - 1
REM
REM Run started: Thu, 22 Oct 2020 14:05:05 +0100 in /scratch/scratch/uccabz1/launch_tmp/launcher_2020-10-22-10-16-27-020043
REM CASTEP 19.11| from code version Version unavailable
REM Functional Perdew Burke Ernzerhof Relativity Koelling-Harmon Dispersion off
REM Cut-off 340.0000 eV Grid scale 1.7500 Gmax 16.5316 1/A FBSC none
REM MP grid 3 3 2 Offset 0.000 0.000 0.000 No. kpts 6 Spacing 0.07
REM Total runtime: 10793.3 s
REM Overall efficiency: 96.4545 %
REM
REM
REM
REM compiler GCC version 4.9.2
REM options -cpp -iprefix /scratch/UCL/applications/gcc/4.9.2/bin/../lib/gcc/x86_64-unknown-linux-gnu/4.9.2/ -mtune=corei7 -march=x86-64 -g -O2
REM COMMAND_LINE
REM seed -2144565952 1599506334 865380637 674748706 -687257039 773294335 -971877013 -863366282 -1304861026 1622117791 -1480544201 983840232
REM
REM S 3|1.8|5|6|7|30:31:32(qc=5)
REM O 2|1.5|12|13|15|20:21(qc=5)
REM Li 1|1.3|8|9|10|10U:20(qc=5)
REM Fe 3|2.2|2.0|1.0|8|9|10|40:41:32(qc=5)
REM Fe d:4.0 
REM
CELL 1.54180    5.87159    5.87159    7.93554   68.28721   68.28721   60.00000
LATT -1
SFAC Li O  S  Fe 
Li     1  0.4092650000000  0.4092650000000 -0.2277940000000 1.0   0.04
Li     1  0.0080820000000  0.0080820000000 -0.0242460000000 1.0   0.04
O      2 -0.0726310000000 -0.0726310000000  0.2178920000000 1.0   0.20
O      2  0.4902900000000  0.4902900000000 -0.4708700000000 1.0   0.20
S      3 -0.2092170000000 -0.2092170000000 -0.3723490000000 1.0   0.25
S      3 -0.3727920000000 -0.3727920000000  0.1183760000000 1.0   0.25
Fe     4 -0.2912230000000 -0.2912230000000  0.3729490000000 1.0   3.67
Fe     4 -0.2912230000000  0.2094960000000  0.3729490000000 1.0   3.67
Fe     4  0.2094960000000 -0.2912230000000  0.3729490000000 1.0   3.67
END
