TITL LFSO-Li3FeS2O-201023-082752-1cdef5 0.1967 490.467575 -7.51947239E+003 12.4566 13.3245 21 (Cm) n - 1
REM
REM Run started: Sat, 24 Oct 2020 01:12:08 +0100 in /lustre/scratch/uccabz1/launch_tmp/launcher_2020-10-23-10-42-55-500930
REM CASTEP 20.1 from code version af48c487+ pr-geom-scf-spinfix Tue Jun 2 15:39:59 2020 +0100
REM Functional Perdew Burke Ernzerhof Relativity Koelling-Harmon Dispersion off
REM Cut-off 340.0000 eV Grid scale 1.7500 Gmax 16.5316 1/A FBSC none
REM MP grid 3 3 2 Offset 0.000 0.000 0.000 No. kpts 6 Spacing 0.07
REM Total runtime: 58925.8 s
REM Overall efficiency: 77.8571 %
REM
REM
REM
REM compiler GCC version 4.9.2
REM options -cpp -iprefix /lustre/shared/ucl/apps/gcc/4.9.2/bin/../lib/gcc/x86_64-unknown-linux-gnu/4.9.2/ -mtune=corei7 -march=x86-64 -g -Og
REM COMMAND_LINE
REM seed 520734010 885424531 -1058358736 -1065971299 -859487888 -135771331 533680421 -1657718412 -1815626674 -749208578 646881459 766793910
REM
REM S 3|1.8|5|6|7|30:31:32(qc=5)
REM O 2|1.5|12|13|15|20:21(qc=5)
REM Li 1|1.3|8|9|10|10U:20(qc=5)
REM Fe 3|2.2|2.0|1.0|8|9|10|40:41:32(qc=5)
REM Fe d:4.0 
REM
CELL 1.54180    8.14029    8.14029    9.09258   82.87688   82.87688   55.29869
LATT -1
SFAC Li O  S  Fe 
Li     1 -0.3816010000000 -0.3816010000000  0.0029250000000 1.0   0.00
Li     1 -0.1338600000000 -0.1338600000000  0.2995820000000 1.0   0.03
Li     1  0.0098620000000  0.0098620000000 -0.3786940000000 1.0  -0.02
Li     1 -0.6733390000000 -0.6733390000000 -0.3924860000000 1.0  -0.03
Li     1 -0.3973480000000 -0.3973480000000  0.2801280000000 1.0  -0.04
Li     1  0.2121720000000  0.2121720000000  0.0996850000000 1.0  -0.03
Li     1 -0.0243030000000 -0.0243030000000  0.0351410000000 1.0   0.01
Li     1  0.4123590000000  0.4123590000000 -0.0148380000000 1.0  -0.01
Li     1 -0.1423860000000 -0.1423860000000 -0.1288000000000 1.0  -0.00
O      2  0.5047470000000  0.5047470000000  0.1093530000000 1.0   0.25
O      2 -0.0139550000000 -0.0139550000000 -0.1662290000000 1.0   0.08
O      2  0.1380790000000  0.1380790000000 -0.4103610000000 1.0   0.30
S      3  0.4922290000000  0.0912900000000  0.2754300000000 1.0   0.11
S      3  0.0912900000000  0.4922290000000  0.2754300000000 1.0   0.11
S      3 -0.5137870000000 -0.5137870000000  0.4932410000000 1.0   0.28
S      3  0.0487060000000  0.0487060000000  0.2474590000000 1.0   0.30
S      3 -0.2369480000000 -0.2369480000000  0.1062510000000 1.0  -0.26
S      3  0.2761020000000  0.2761020000000 -0.1436060000000 1.0   0.03
Fe     4  0.1230370000000  0.1230370000000 -0.1972470000000 1.0   3.80
Fe     4  0.1722050000000  0.1722050000000  0.3874460000000 1.0   3.81
Fe     4  0.4178660000000  0.4178660000000  0.2832460000000 1.0   3.76
END
