TITL LFSO-Li2Fe2S2O-201022-020143-e1033d -0.3356 308.271759 -6.33515915E+003 12.3445 15.3985 14 (Iba2) n - 1
REM
REM Run started: Thu, 22 Oct 2020 09:32:24 +0100 in /scratch/scratch/uccabz1/launch_tmp/launcher_2020-10-22-01-01-41-358944
REM CASTEP 19.11| from code version Version unavailable
REM Functional Perdew Burke Ernzerhof Relativity Koelling-Harmon Dispersion off
REM Cut-off 340.0000 eV Grid scale 1.7500 Gmax 16.5316 1/A FBSC none
REM MP grid 4 2 2 Offset 0.000 0.000 0.000 No. kpts 6 Spacing 0.07
REM Total runtime: 29850.6 s
REM Overall efficiency: 88.9167 %
REM
REM
REM
REM compiler GCC version 4.9.2
REM options -cpp -iprefix /scratch/UCL/applications/gcc/4.9.2/bin/../lib/gcc/x86_64-unknown-linux-gnu/4.9.2/ -mtune=corei7 -march=x86-64 -g -O2
REM COMMAND_LINE
REM seed 1407577968 2023304294 -885018814 1482797016 -32769435 1845345405 -1253293827 -680689036 924325623 -526400552 1681728111 -170533988
REM
REM S 3|1.8|5|6|7|30:31:32(qc=5)
REM O 2|1.5|12|13|15|20:21(qc=5)
REM Li 1|1.3|8|9|10|10U:20(qc=5)
REM Fe 3|2.2|2.0|1.0|8|9|10|40:41:32(qc=5)
REM Fe d:4.0 
REM
CELL 1.54180    4.64203    8.47439    8.47439   86.97619   74.10434   74.10434
LATT -1
SFAC Li O  S  Fe 
Li     1  0.4868500000000  0.3145540000000 -0.4840450000000 1.0  -0.03
Li     1 -0.3173590000000 -0.4840450000000  0.3145540000000 1.0  -0.03
Li     1  0.1826410000000 -0.1854460000000  0.0159550000000 1.0  -0.03
Li     1 -0.0131500000000  0.0159550000000 -0.1854460000000 1.0  -0.03
O      2  0.2169120000000 -0.2169120000000 -0.2169120000000 1.0   0.09
O      2 -0.2830880000000  0.2830880000000  0.2830880000000 1.0   0.09
S      3  0.0954210000000 -0.3761650000000  0.3692320000000 1.0  -0.36
S      3 -0.0884870000000  0.3692320000000 -0.3761650000000 1.0  -0.36
S      3  0.4115130000000  0.1238350000000 -0.1307680000000 1.0  -0.36
S      3 -0.4045790000000 -0.1307680000000  0.1238350000000 1.0  -0.36
Fe     4 -0.4140510000000 -0.3907320000000 -0.2823800000000 1.0   3.43
Fe     4  0.0871640000000 -0.2823800000000 -0.3907320000000 1.0   3.43
Fe     4  0.5871640000000  0.1092680000000  0.2176200000000 1.0   3.43
Fe     4  0.0859490000000  0.2176200000000  0.1092680000000 1.0   3.43
END
