TITL LFSO-Li2Fe4S4O-201023-033520-ba6e98 0.0944 408.207915 -5.50169232E+003 15.9998 16.3307 11 (P-1) n - 1
REM
REM Run started: Fri, 23 Oct 2020 11:58:18 +0100 in /lustre/scratch/uccabz1/launch_tmp/launcher_2020-10-23-02-35-18-763935
REM CASTEP 20.1 from code version af48c487+ pr-geom-scf-spinfix Tue Jun 2 15:39:59 2020 +0100
REM Functional Perdew Burke Ernzerhof Relativity Koelling-Harmon Dispersion off
REM Cut-off 340.0000 eV Grid scale 1.7500 Gmax 16.5316 1/A FBSC none
REM MP grid 4 3 2 Offset 0.000 0.000 0.000 No. kpts 12 Spacing 0.07
REM Total runtime: 36307.7 s
REM Overall efficiency: 75.6923 %
REM
REM
REM
REM compiler GCC version 4.9.2
REM options -cpp -iprefix /lustre/shared/ucl/apps/gcc/4.9.2/bin/../lib/gcc/x86_64-unknown-linux-gnu/4.9.2/ -mtune=corei7 -march=x86-64 -g -Og
REM COMMAND_LINE
REM seed -1162132193 -1446772827 -579140590 -1851406652 1020392033 -117479441 2091749032 513241254 551057088 -1228771723 25747336 83197546
REM
REM S 3|1.8|5|6|7|30:31:32(qc=5)
REM O 2|1.5|12|13|15|20:21(qc=5)
REM Li 1|1.3|8|9|10|10U:20(qc=5)
REM Fe 3|2.2|2.0|1.0|8|9|10|40:41:32(qc=5)
REM Fe d:4.0 
REM
CELL 1.54180    3.78153   13.58936   17.97530  153.58971   95.54969   86.55647
LATT -1
SFAC Li O  S  Fe 
Li     1 -0.1263610000000 -0.0801360000000 -0.4699580000000 1.0  -0.03
Li     1  0.1263610000000  0.0801360000000  0.4699580000000 1.0  -0.03
O      2 -0.5000000000000  0.0000000000000  0.5000000000000 1.0   0.23
S      3  0.0238170000000  0.5059690000000  0.1718870000000 1.0   0.12
S      3 -0.0238170000000 -0.5059690000000 -0.1718870000000 1.0   0.12
S      3  0.3882700000000  0.1086500000000 -0.2552480000000 1.0   0.12
S      3 -0.3882700000000 -0.1086500000000  0.2552480000000 1.0   0.12
Fe     4  0.0725470000000 -0.2373070000000  0.1010450000000 1.0   3.82
Fe     4 -0.0725470000000  0.2373070000000 -0.1010450000000 1.0   3.82
Fe     4  0.5258420000000 -0.2934010000000  0.2594380000000 1.0   3.85
Fe     4 -0.5258420000000  0.2934010000000 -0.2594380000000 1.0   3.85
END
