TITL LFSO-LiFe3S4O-201028-090717-fc2e14 0.0883 414.134577 -8.87698992E+003 -22.0000 23.3421 18 (P21) n - 1
REM
REM Run started: Wed, 28 Oct 2020 14:36:18 +0000 in /scratch/scratch/uccabz1/launch_tmp/launcher_2020-10-28-09-07-16-286616
REM CASTEP 19.11| from code version Version unavailable
REM Functional Perdew Burke Ernzerhof Relativity Koelling-Harmon Dispersion off
REM Cut-off 340.0000 eV Grid scale 1.7500 Gmax 16.5316 1/A FBSC none
REM MP grid 3 2 2 Offset 0.000 0.000 0.000 No. kpts 4 Spacing 0.07
REM Total runtime: 20812.1 s
REM Overall efficiency: 77.6667 %
REM
REM
REM
REM compiler GCC version 4.9.2
REM options -cpp -iprefix /scratch/UCL/applications/gcc/4.9.2/bin/../lib/gcc/x86_64-unknown-linux-gnu/4.9.2/ -mtune=corei7 -march=x86-64 -g -O2
REM COMMAND_LINE
REM seed 453949124 -647950652 1704439175 -1661815743 -861264260 -1294754432 -1398870874 -1865943888 -558569193 -1341900968 1306199641 1970946606
REM
REM S 3|1.8|5|6|7|30:31:32(qc=5)
REM O 2|1.5|12|13|15|20:21(qc=5)
REM Li 1|1.3|8|9|10|10U:20(qc=5)
REM Fe 3|2.2|2.0|1.0|8|9|10|40:41:32(qc=5)
REM Fe d:4.0 
REM
CELL 1.54180    6.18000    7.07496    9.84380  105.80337   90.00000   90.00000
LATT -1
SFAC Li O  S  Fe 
Li     1 -0.5213820000000  0.2659180000000  0.1080350000000 1.0   0.01
Li     1 -0.0213820000000 -0.2659180000000 -0.1080350000000 1.0   0.01
O      2  0.4816910000000 -0.4893580000000  0.2323410000000 1.0  -0.14
O      2 -0.0183090000000  0.4893580000000 -0.2323410000000 1.0  -0.14
S      3 -0.4540410000000  0.1532720000000 -0.1408390000000 1.0  -0.00
S      3  0.0459590000000 -0.1532720000000  0.1408390000000 1.0  -0.00
S      3 -0.1369630000000 -0.0765050000000  0.5391230000000 1.0   0.14
S      3  0.3630370000000  0.0765050000000 -0.5391230000000 1.0   0.14
S      3  0.5328610000000 -0.4179210000000 -0.3660680000000 1.0   0.01
S      3  0.0328610000000  0.4179210000000  0.3660680000000 1.0   0.01
S      3 -0.4067030000000  0.1315000000000  0.3249270000000 1.0   0.16
S      3  0.0932970000000 -0.1315000000000 -0.3249270000000 1.0   0.16
Fe     4  0.4852160000000 -0.0731980000000 -0.3598540000000 1.0  -3.67
Fe     4 -0.0147840000000  0.0731980000000  0.3598540000000 1.0  -3.67
Fe     4  0.1563100000000  0.4988000000000 -0.3891030000000 1.0  -3.75
Fe     4  0.6563100000000 -0.4988000000000  0.3891030000000 1.0  -3.75
Fe     4 -0.2933750000000  0.3815650000000 -0.2283500000000 1.0  -3.76
Fe     4  0.2066250000000 -0.3815650000000  0.2283500000000 1.0  -3.76
END
