TITL LFSO-Li2FeSO-201025-051659-e2b507 0.0264 250.437440 -6.00570546E+003 11.1379 11.3258 15 (P222) n - 1
REM
REM Run started: Sun, 25 Oct 2020 07:57:49 +0000 in /lustre/scratch/uccabz1/launch_tmp/launcher_2020-10-25-05-16-57-151113
REM CASTEP 20.1 from code version af48c487+ pr-geom-scf-spinfix Tue Jun 2 15:39:59 2020 +0100
REM Functional Perdew Burke Ernzerhof Relativity Koelling-Harmon Dispersion off
REM Cut-off 340.0000 eV Grid scale 1.7500 Gmax 16.5316 1/A FBSC none
REM MP grid 3 3 3 Offset 0.000 0.000 0.000 No. kpts 8 Spacing 0.07
REM Total runtime: 8911.19 s
REM Overall efficiency: 94 %
REM
REM
REM
REM compiler GCC version 4.9.2
REM options -cpp -iprefix /lustre/shared/ucl/apps/gcc/4.9.2/bin/../lib/gcc/x86_64-unknown-linux-gnu/4.9.2/ -mtune=corei7 -march=x86-64 -g -Og
REM COMMAND_LINE
REM seed -2014765987 1962377360 728409652 1466229932 -1275804092 -1751953846 -1243172764 1468829110 606230746 -422872485 -448582094 1453638150
REM
REM S 3|1.8|5|6|7|30:31:32(qc=5)
REM O 2|1.5|12|13|15|20:21(qc=5)
REM Li 1|1.3|8|9|10|10U:20(qc=5)
REM Fe 3|2.2|2.0|1.0|8|9|10|40:41:32(qc=5)
REM Fe d:4.0 
REM
CELL 1.54180    5.75620    7.05869    6.16367   90.00000   90.00000   90.00000
LATT -1
SFAC Li O  S  Fe 
Li     1 -0.0835280000000 -0.1875340000000 -0.2127290000000 1.0  -0.09
Li     1  0.0835280000000  0.1875340000000 -0.2127290000000 1.0  -0.09
Li     1 -0.0835280000000  0.1875340000000  0.2127290000000 1.0  -0.09
Li     1  0.0835280000000 -0.1875340000000  0.2127290000000 1.0  -0.09
Li     1  0.2260710000000 -0.5000000000000 -0.5000000000000 1.0  -0.00
Li     1 -0.2260710000000 -0.5000000000000 -0.5000000000000 1.0  -0.00
O      2  0.0000000000000  0.5000000000000  0.2904820000000 1.0   0.12
O      2  0.0000000000000  0.5000000000000 -0.2904820000000 1.0   0.12
O      2  0.0000000000000  0.0000000000000  0.0000000000000 1.0   0.08
S      3  0.5000000000000 -0.1508280000000  0.5000000000000 1.0   0.09
S      3 -0.5000000000000  0.1508280000000 -0.5000000000000 1.0   0.09
S      3  0.5000000000000  0.5000000000000  0.0000000000000 1.0   0.14
Fe     4 -0.5000000000000 -0.1793770000000  0.0000000000000 1.0   3.58
Fe     4 -0.5000000000000  0.1793770000000  0.0000000000000 1.0   3.58
Fe     4  0.0000000000000 -0.5000000000000  0.0000000000000 1.0   3.73
END
