TITL LFSO-Li6FeSO3-201028-054143-7ff2c7 -0.0120 226.219565 -3.67729761E+003 -4.00066 4.12486 11 (P3) n - 1
REM
REM Run started: Wed, 28 Oct 2020 06:01:28 +0000 in /lustre/scratch/uccabz1/launch_tmp/launcher_2020-10-28-05-41-41-881881
REM CASTEP 20.1 from code version af48c487+ pr-geom-scf-spinfix Tue Jun 2 15:39:59 2020 +0100
REM Functional Perdew Burke Ernzerhof Relativity Koelling-Harmon Dispersion off
REM Cut-off 340.0000 eV Grid scale 1.7500 Gmax 16.5316 1/A FBSC none
REM MP grid 3 3 3 Offset 0.000 0.000 0.000 No. kpts 8 Spacing 0.07
REM Total runtime: 1426.83 s
REM Overall efficiency: 74.1667 %
REM
REM
REM
REM compiler GCC version 4.9.2
REM options -cpp -iprefix /lustre/shared/ucl/apps/gcc/4.9.2/bin/../lib/gcc/x86_64-unknown-linux-gnu/4.9.2/ -mtune=corei7 -march=x86-64 -g -Og
REM COMMAND_LINE
REM seed -1044131540 -1094745883 1116268283 -338233795 886310249 1449817410 448656033 -973006810 1090082561 159153671 194152991 1423839050
REM
REM S 3|1.8|5|6|7|30:31:32(qc=5)
REM O 2|1.5|12|13|15|20:21(qc=5)
REM Li 1|1.3|8|9|10|10U:20(qc=5)
REM Fe 3|2.2|2.0|1.0|8|9|10|40:41:32(qc=5)
REM Fe d:4.0 
REM
CELL 1.54180    6.22769    6.22769    6.73512   90.00000   90.00000  120.00000
LATT -1
SFAC Li O  S  Fe 
Li     1 -0.2495610000000  0.0249040000000  0.1776290000000 1.0   0.01
Li     1 -0.0249040000000 -0.2744650000000  0.1776290000000 1.0   0.01
Li     1  0.2744650000000  0.2495610000000  0.1776290000000 1.0   0.01
Li     1 -0.0550810000000  0.3948370000000 -0.4941530000000 1.0   0.01
Li     1 -0.3948370000000 -0.4499180000000 -0.4941530000000 1.0   0.01
Li     1  0.4499180000000  0.0550810000000 -0.4941530000000 1.0   0.01
O      2 -0.2687380000000  0.0628810000000  0.4395710000000 1.0  -0.09
O      2 -0.0628810000000 -0.3316190000000  0.4395710000000 1.0  -0.09
O      2  0.3316190000000  0.2687380000000  0.4395710000000 1.0  -0.09
S      3  0.0000000000000 -0.0000000000000 -0.0628620000000 1.0   0.01
Fe     4  0.0000000000000 -0.0000000000000  0.5135650000000 1.0  -3.82
END
