TITL LFSO-Li2Fe3S3O-201026-024512-e2a835 -0.0979 400.439003 -8.66963971E+003 21.9964 22.5915 18 (C2/m) n - 1
REM
REM Run started: Mon, 26 Oct 2020 13:56:45 +0000 in /lustre/scratch/uccabz1/launch_tmp/launcher_2020-10-26-02-45-10-385837
REM CASTEP 20.1 from code version af48c487+ pr-geom-scf-spinfix Tue Jun 2 15:39:59 2020 +0100
REM Functional Perdew Burke Ernzerhof Relativity Koelling-Harmon Dispersion off
REM Cut-off 340.0000 eV Grid scale 1.7500 Gmax 16.5316 1/A FBSC none
REM MP grid 5 2 2 Offset 0.000 0.000 0.000 No. kpts 10 Spacing 0.07
REM Total runtime: 43224.1 s
REM Overall efficiency: 77.9167 %
REM
REM
REM
REM compiler GCC version 4.9.2
REM options -cpp -iprefix /lustre/shared/ucl/apps/gcc/4.9.2/bin/../lib/gcc/x86_64-unknown-linux-gnu/4.9.2/ -mtune=corei7 -march=x86-64 -g -Og
REM COMMAND_LINE
REM seed -1532344137 413081029 -1565920110 342131138 -609839168 1839046198 1247855856 1933176703 -215992521 1872473982 -1088265887 890672257
REM
REM S 3|1.8|5|6|7|30:31:32(qc=5)
REM O 2|1.5|12|13|15|20:21(qc=5)
REM Li 1|1.3|8|9|10|10U:20(qc=5)
REM Fe 3|2.2|2.0|1.0|8|9|10|40:41:32(qc=5)
REM Fe d:4.0 
REM
CELL 1.54180    3.71599   10.95316   12.03652   62.93524   79.59779   66.61978
LATT -1
SFAC Li O  S  Fe 
Li     1  0.0205180000000  0.0323580000000  0.1606630000000 1.0  -0.02
Li     1 -0.0205180000000 -0.1930210000000  0.1606630000000 1.0  -0.02
Li     1 -0.0205180000000 -0.0323580000000 -0.1606630000000 1.0  -0.02
Li     1  0.0205180000000  0.1930210000000 -0.1606630000000 1.0  -0.02
O      2 -0.0000000000000 -0.1447300000000  0.2894600000000 1.0   0.14
O      2 -0.0000000000000  0.1447300000000 -0.2894600000000 1.0   0.14
S      3 -0.2077200000000 -0.1521090000000 -0.3562040000000 1.0   0.15
S      3  0.2077200000000 -0.4916860000000 -0.3562040000000 1.0   0.15
S      3  0.2077200000000  0.1521090000000  0.3562040000000 1.0   0.15
S      3 -0.2077200000000  0.4916860000000  0.3562040000000 1.0   0.15
S      3 -0.4891450000000 -0.0999660000000 -0.0000000000000 1.0   0.01
S      3  0.4891450000000  0.0999660000000 -0.0000000000000 1.0   0.01
Fe     4 -0.1865740000000 -0.0838890000000  0.4241430000000 1.0   3.43
Fe     4  0.1865740000000 -0.3402540000000  0.4241430000000 1.0   3.43
Fe     4  0.1865740000000  0.0838890000000 -0.4241430000000 1.0   3.43
Fe     4 -0.1865740000000  0.3402540000000 -0.4241430000000 1.0   3.43
Fe     4  0.5000000000000  0.3204490000000  0.3591030000000 1.0   3.73
Fe     4 -0.5000000000000 -0.3204490000000 -0.3591030000000 1.0   3.73
END
