TITL LFSO-Li6FeSO3-201028-033350-1dad6f -0.0244 301.045693 -7.35524257E+003 8.00000 8.16858 22 (Ama2) n - 1
REM
REM Run started: Wed, 28 Oct 2020 04:22:39 +0000 in /scratch/scratch/uccabz1/launch_tmp/launcher_2020-10-28-03-33-49-242808
REM CASTEP 19.11| from code version Version unavailable
REM Functional Perdew Burke Ernzerhof Relativity Koelling-Harmon Dispersion off
REM Cut-off 340.0000 eV Grid scale 1.7500 Gmax 16.5316 1/A FBSC none
REM MP grid 3 3 2 Offset 0.000 0.000 0.000 No. kpts 4 Spacing 0.07
REM Total runtime: 2944.77 s
REM Overall efficiency: 71.1429 %
REM
REM
REM
REM compiler GCC version 4.9.2
REM options -cpp -iprefix /scratch/UCL/applications/gcc/4.9.2/bin/../lib/gcc/x86_64-unknown-linux-gnu/4.9.2/ -mtune=corei7 -march=x86-64 -g -O2
REM COMMAND_LINE
REM seed -1261440530 -2024221872 -409248036 -435475477 -825202663 2035097966 -1342125917 -75463247 -552477349 1383714862 51935634 656075565
REM
REM S 3|1.8|5|6|7|30:31:32(qc=5)
REM O 2|1.5|12|13|15|20:21(qc=5)
REM Li 1|1.3|8|9|10|10U:20(qc=5)
REM Fe 3|2.2|2.0|1.0|8|9|10|40:41:32(qc=5)
REM Fe d:4.0 
REM
CELL 1.54180    5.71573    5.71573    9.82427   90.00000   90.00000  110.28702
LATT -1
SFAC Li O  S  Fe 
Li     1  0.0296200000000  0.2472170000000  0.0836960000000 1.0  -0.02
Li     1 -0.2472170000000 -0.0296200000000 -0.0836960000000 1.0  -0.02
Li     1 -0.2472170000000 -0.0296200000000 -0.4163040000000 1.0  -0.02
Li     1  0.0296200000000  0.2472170000000  0.4163040000000 1.0  -0.02
Li     1  0.3116350000000 -0.4152350000000 -0.1235360000000 1.0  -0.03
Li     1  0.4152350000000 -0.3116350000000  0.1235360000000 1.0  -0.03
Li     1  0.4152350000000 -0.3116350000000  0.3764640000000 1.0  -0.03
Li     1  0.3116350000000 -0.4152350000000 -0.3764640000000 1.0  -0.03
Li     1 -0.5296710000000  0.1614860000000  0.3778710000000 1.0  -0.01
Li     1 -0.1614860000000  0.5296710000000 -0.3778710000000 1.0  -0.01
Li     1 -0.1614860000000  0.5296710000000 -0.1221290000000 1.0  -0.01
Li     1 -0.5296710000000  0.1614860000000  0.1221290000000 1.0  -0.01
O      2 -0.3061720000000 -0.0151680000000  0.3928950000000 1.0   0.13
O      2  0.0151680000000  0.3061720000000 -0.3928950000000 1.0   0.13
O      2  0.0151680000000  0.3061720000000 -0.1071050000000 1.0   0.13
O      2 -0.3061720000000 -0.0151680000000  0.1071050000000 1.0   0.13
O      2 -0.3929500000000 -0.3524240000000 -0.2500000000000 1.0   0.00
O      2  0.3524240000000  0.3929500000000  0.2500000000000 1.0   0.00
S      3  0.1473750000000 -0.1473750000000 -0.0000000000000 1.0   0.01
S      3  0.1473750000000 -0.1473750000000 -0.5000000000000 1.0   0.01
Fe     4  0.1271820000000  0.1404860000000 -0.2500000000000 1.0   3.84
Fe     4 -0.1404860000000 -0.1271820000000  0.2500000000000 1.0   3.84
END
