TITL LFSO-Li6FeSO3-201028-073712-db18af 0.0718 328.448797 -7.35906428E+003 8.00000 8.20421 22 (Pc) n - 1
REM
REM Run started: Wed, 28 Oct 2020 10:00:57 +0000 in /scratch/scratch/uccabz1/launch_tmp/launcher_2020-10-28-07-37-10-611594
REM CASTEP 19.11| from code version Version unavailable
REM Functional Perdew Burke Ernzerhof Relativity Koelling-Harmon Dispersion off
REM Cut-off 340.0000 eV Grid scale 1.7500 Gmax 16.5316 1/A FBSC none
REM MP grid 2 3 3 Offset 0.000 0.000 0.000 No. kpts 6 Spacing 0.07
REM Total runtime: 9291.08 s
REM Overall efficiency: 76.5 %
REM
REM
REM
REM compiler GCC version 4.9.2
REM options -cpp -iprefix /scratch/UCL/applications/gcc/4.9.2/bin/../lib/gcc/x86_64-unknown-linux-gnu/4.9.2/ -mtune=corei7 -march=x86-64 -g -O2
REM COMMAND_LINE
REM seed 2035861520 483879394 3571978 -1702835043 1937738238 1090197406 1883464377 -8455668 368288482 -1187762386 459839016 -2017779788
REM
REM S 3|1.8|5|6|7|30:31:32(qc=5)
REM O 2|1.5|12|13|15|20:21(qc=5)
REM Li 1|1.3|8|9|10|10U:20(qc=5)
REM Fe 3|2.2|2.0|1.0|8|9|10|40:41:32(qc=5)
REM Fe d:4.0 
REM
CELL 1.54180    8.85798    6.01307    6.31639   90.00000   90.00000  102.50835
LATT -1
SFAC Li O  S  Fe 
Li     1 -0.3939700000000  0.5223750000000 -0.1230770000000 1.0  -0.04
Li     1  0.1060300000000  0.0223750000000  0.1230770000000 1.0  -0.04
Li     1  0.3475430000000  0.2320390000000 -0.1552220000000 1.0  -0.01
Li     1 -0.1524570000000 -0.2679610000000  0.1552220000000 1.0  -0.01
Li     1  0.0626470000000  0.3945020000000 -0.1525270000000 1.0  -0.04
Li     1 -0.4373530000000 -0.1054980000000  0.1525270000000 1.0  -0.04
Li     1 -0.3114410000000  0.3686990000000  0.5438440000000 1.0   0.01
Li     1  0.1885590000000 -0.1313010000000 -0.5438440000000 1.0   0.01
Li     1 -0.0811500000000  0.1408210000000  0.4513600000000 1.0  -0.04
Li     1 -0.5811500000000 -0.3591790000000 -0.4513600000000 1.0  -0.04
Li     1 -0.0511810000000 -0.3269720000000 -0.4017620000000 1.0   0.03
Li     1  0.4488190000000  0.1730280000000  0.4017620000000 1.0   0.03
O      2 -0.2933910000000 -0.1862940000000 -0.0412530000000 1.0   0.13
O      2  0.2066090000000  0.3137060000000  0.0412530000000 1.0   0.13
O      2  0.4892330000000  0.3821010000000  0.6370880000000 1.0   0.01
O      2 -0.0107670000000 -0.1178990000000 -0.6370880000000 1.0   0.01
O      2 -0.1224980000000  0.3362990000000 -0.3235480000000 1.0   0.08
O      2  0.3775020000000 -0.1637010000000  0.3235480000000 1.0   0.08
S      3  0.1877970000000 -0.1938220000000 -0.1791520000000 1.0   0.11
S      3 -0.3122030000000  0.3061780000000  0.1791520000000 1.0   0.11
Fe     4  0.2775510000000 -0.3815900000000  0.1131670000000 1.0   3.76
Fe     4 -0.2224490000000  0.1184100000000 -0.1131670000000 1.0   3.76
END
