TITL LFSO-LiFe3S4O-201028-153122-ca978c -0.1141 257.713148 -4.43799145E+003 4.88185 11.4205 9 (Pm) n - 1
REM
REM Run started: Wed, 28 Oct 2020 19:42:43 +0000 in /scratch/scratch/uccabz1/launch_tmp/launcher_2020-10-28-15-31-20-720587
REM CASTEP 19.11| from code version Version unavailable
REM Functional Perdew Burke Ernzerhof Relativity Koelling-Harmon Dispersion off
REM Cut-off 340.0000 eV Grid scale 1.7500 Gmax 16.5316 1/A FBSC none
REM MP grid 3 5 2 Offset 0.000 0.000 0.000 No. kpts 8 Spacing 0.07
REM Total runtime: 17533.7 s
REM Overall efficiency: 76.6667 %
REM
REM
REM
REM compiler GCC version 4.9.2
REM options -cpp -iprefix /scratch/UCL/applications/gcc/4.9.2/bin/../lib/gcc/x86_64-unknown-linux-gnu/4.9.2/ -mtune=corei7 -march=x86-64 -g -O2
REM COMMAND_LINE
REM seed -201282771 -986124669 1395940902 -892926414 -229699597 2005689561 -918216910 -871378229 -135153912 1737710296 -179612673 -1172797576
REM
REM S 3|1.8|5|6|7|30:31:32(qc=5)
REM O 2|1.5|12|13|15|20:21(qc=5)
REM Li 1|1.3|8|9|10|10U:20(qc=5)
REM Fe 3|2.2|2.0|1.0|8|9|10|40:41:32(qc=5)
REM Fe d:4.0 
REM
CELL 1.54180    8.71329    3.99606    9.43451   90.00000   90.00000  128.32392
LATT -1
SFAC Li O  S  Fe 
Li     1  0.1202020000000  0.7956940000000  0.0000000000000 1.0   0.01
O      2 -0.3074000000000 -0.1638220000000  0.5000000000000 1.0   0.26
S      3 -0.1413790000000  0.5337620000000  0.1870710000000 1.0   0.03
S      3 -0.1413790000000  0.5337620000000 -0.1870710000000 1.0   0.03
S      3  0.3580430000000 -0.3004080000000 -0.1106560000000 1.0   0.10
S      3  0.3580430000000 -0.3004080000000  0.1106560000000 1.0   0.10
Fe     4 -0.2197480000000 -0.0778420000000 -0.3174850000000 1.0   3.80
Fe     4 -0.2197480000000 -0.0778420000000  0.3174850000000 1.0   3.80
Fe     4 -0.3569560000000  0.2458470000000  0.0000000000000 1.0  -3.23
END
