TITL LFSO-Li2Fe3S3O-201025-140550-c4fb74 0.0078 186.095240 -4.33389740E+003 11.9488 12.1286 9 (Amm2) n - 1
REM
REM Run started: Sun, 25 Oct 2020 14:55:47 +0000 in /lustre/scratch/uccabz1/launch_tmp/launcher_2020-10-25-14-05-48-918181
REM CASTEP 20.1 from code version af48c487+ pr-geom-scf-spinfix Tue Jun 2 15:39:59 2020 +0100
REM Functional Perdew Burke Ernzerhof Relativity Koelling-Harmon Dispersion off
REM Cut-off 340.0000 eV Grid scale 1.7500 Gmax 16.5316 1/A FBSC none
REM MP grid 3 3 4 Offset 0.000 0.000 0.000 No. kpts 12 Spacing 0.07
REM Total runtime: 3372.8 s
REM Overall efficiency: 74.875 %
REM
REM
REM
REM compiler GCC version 4.9.2
REM options -cpp -iprefix /lustre/shared/ucl/apps/gcc/4.9.2/bin/../lib/gcc/x86_64-unknown-linux-gnu/4.9.2/ -mtune=corei7 -march=x86-64 -g -Og
REM COMMAND_LINE
REM seed -1108409097 -1384845774 1123196689 -465412165 -1495892793 -1847242447 -1521521971 1768796633 -1054771806 1731476015 798719126 -1504368472
REM
REM S 3|1.8|5|6|7|30:31:32(qc=5)
REM O 2|1.5|12|13|15|20:21(qc=5)
REM Li 1|1.3|8|9|10|10U:20(qc=5)
REM Fe 3|2.2|2.0|1.0|8|9|10|40:41:32(qc=5)
REM Fe d:4.0 
REM
CELL 1.54180    6.80367    7.21381    5.23319  133.56970   90.00000   90.00000
LATT -1
SFAC Li O  S  Fe 
Li     1  0.3307650000000  0.0395590000000  0.0791190000000 1.0  -0.04
Li     1 -0.3307650000000  0.0395590000000  0.0791190000000 1.0  -0.04
O      2  0.0000000000000  0.5434430000000  0.0868850000000 1.0   0.16
S      3 -0.5000000000000 -0.0564680000000 -0.5919810000000 1.0   0.14
S      3  0.5000000000000 -0.5355140000000 -0.5919810000000 1.0   0.14
S      3  0.0000000000000 -0.0007820000000 -0.0015630000000 1.0   0.09
Fe     4  0.2688620000000 -0.3598640000000  0.2802720000000 1.0   3.82
Fe     4 -0.2688620000000 -0.3598640000000  0.2802720000000 1.0   3.82
Fe     4  0.0000000000000  0.2959550000000  0.5919100000000 1.0   3.86
END
