TITL LFSO-Li5FeSO3-201027-010158-d7c24b 0.0068 335.565950 -6.95208821E+003 6.23425 7.68178 20 (P3) n - 1
REM
REM Run started: Tue, 27 Oct 2020 02:27:28 +0000 in /lustre/scratch/uccabz1/launch_tmp/launcher_2020-10-27-01-01-56-846173
REM CASTEP 20.1 from code version af48c487+ pr-geom-scf-spinfix Tue Jun 2 15:39:59 2020 +0100
REM Functional Perdew Burke Ernzerhof Relativity Koelling-Harmon Dispersion off
REM Cut-off 340.0000 eV Grid scale 1.7500 Gmax 16.5316 1/A FBSC none
REM MP grid 2 3 3 Offset 0.000 0.000 0.000 No. kpts 5 Spacing 0.07
REM Total runtime: 5165.51 s
REM Overall efficiency: 71.3333 %
REM
REM
REM
REM compiler GCC version 4.9.2
REM options -cpp -iprefix /lustre/shared/ucl/apps/gcc/4.9.2/bin/../lib/gcc/x86_64-unknown-linux-gnu/4.9.2/ -mtune=corei7 -march=x86-64 -g -Og
REM COMMAND_LINE
REM seed -415480052 78381116 1656140362 -462234532 -1557830101 1919255018 -1234851944 -1311101308 -152331036 817588780 1276340881 -149682073
REM
REM S 3|1.8|5|6|7|30:31:32(qc=5)
REM O 2|1.5|12|13|15|20:21(qc=5)
REM Li 1|1.3|8|9|10|10U:20(qc=5)
REM Fe 3|2.2|2.0|1.0|8|9|10|40:41:32(qc=5)
REM Fe d:4.0 
REM
CELL 1.54180    9.41763    6.41435    6.41435  120.00000   90.00000   90.00000
LATT -1
SFAC Li O  S  Fe 
Li     1 -0.2655160000000 -0.1997370000000 -0.3679090000000 1.0  -0.03
Li     1 -0.2655160000000  0.3679090000000  0.1681710000000 1.0  -0.03
Li     1 -0.2655160000000 -0.1681710000000  0.1997370000000 1.0  -0.03
Li     1  0.0098330000000  0.1635990000000  0.3017320000000 1.0   0.00
Li     1  0.0098330000000 -0.3017320000000 -0.1381320000000 1.0   0.00
Li     1  0.0098330000000  0.1381320000000 -0.1635990000000 1.0   0.00
Li     1  0.4259070000000 -0.4124610000000 -0.0759200000000 1.0  -0.10
Li     1  0.4259070000000  0.0759200000000 -0.3365410000000 1.0  -0.10
Li     1  0.4259070000000  0.3365410000000  0.4124610000000 1.0  -0.10
Li     1  0.1871180000000 -0.3333330000000  0.3333330000000 1.0  -0.26
O      2 -0.0601700000000 -0.1474030000000  0.1786510000000 1.0  -0.01
O      2 -0.0601700000000 -0.1786510000000 -0.3260540000000 1.0  -0.01
O      2 -0.0601700000000  0.3260540000000  0.1474030000000 1.0  -0.01
O      2 -0.3852480000000  0.0009540000000 -0.4332120000000 1.0   0.09
O      2 -0.3852480000000  0.4332120000000 -0.5658340000000 1.0   0.09
O      2 -0.3852480000000  0.5658340000000 -0.0009540000000 1.0   0.09
S      3  0.2285800000000  0.3333330000000 -0.3333330000000 1.0  -0.04
S      3 -0.0579330000000 -0.3333330000000  0.3333330000000 1.0  -0.01
Fe     4 -0.3524600000000  0.3333330000000 -0.3333330000000 1.0   3.71
Fe     4 -0.4753230000000 -0.3333330000000  0.3333330000000 1.0   2.94
END
