TITL LFSO-Li2Fe3S2O2-201022-103011-319b3e -0.0340 238.584320 -4.46365457E+003 -11.1938 11.5707 9 (P3) n - 1
REM
REM Run started: Thu, 22 Oct 2020 15:02:46 +0100 in /lustre/scratch/uccabz1/launch_tmp/launcher_2020-10-22-09-30-10-050479
REM CASTEP 20.1 from code version af48c487+ pr-geom-scf-spinfix Tue Jun 2 15:39:59 2020 +0100
REM Functional Perdew Burke Ernzerhof Relativity Koelling-Harmon Dispersion off
REM Cut-off 340.0000 eV Grid scale 1.7500 Gmax 16.5316 1/A FBSC none
REM MP grid 4 4 2 Offset 0.000 0.000 0.000 No. kpts 16 Spacing 0.07
REM Total runtime: 16527.9 s
REM Overall efficiency: 92.9167 %
REM
REM
REM
REM compiler GCC version 4.9.2
REM options -cpp -iprefix /lustre/shared/ucl/apps/gcc/4.9.2/bin/../lib/gcc/x86_64-unknown-linux-gnu/4.9.2/ -mtune=corei7 -march=x86-64 -g -Og
REM COMMAND_LINE
REM seed 1838243910 230239842 -509539126 272368438 -466766438 1185456933 -43560218 1554331717 -573496041 -694729849 -1016660211 -1604160773
REM
REM S 3|1.8|5|6|7|30:31:32(qc=5)
REM O 2|1.5|12|13|15|20:21(qc=5)
REM Li 1|1.3|8|9|10|10U:20(qc=5)
REM Fe 3|2.2|2.0|1.0|8|9|10|40:41:32(qc=5)
REM Fe d:4.0 
REM
CELL 1.54180    5.35342    5.35342    9.61278   90.00000   90.00000  120.00000
LATT -1
SFAC Li O  S  Fe 
Li     1 -0.0000000000000  0.0000000000000  0.0631630000000 1.0   0.01
Li     1  0.3333330000000 -0.3333330000000  0.3438380000000 1.0   0.04
O      2 -0.3333330000000  0.3333330000000 -0.2467890000000 1.0  -0.33
O      2 -0.3333330000000  0.3333330000000  0.4911310000000 1.0  -0.16
S      3 -0.0000000000000  0.0000000000000 -0.2028170000000 1.0   0.00
S      3  0.3333330000000 -0.3333330000000  0.1131870000000 1.0  -0.54
Fe     4  0.3346420000000  0.1992080000000 -0.3752420000000 1.0  -3.40
Fe     4 -0.1354340000000 -0.3346420000000 -0.3752420000000 1.0  -3.40
Fe     4 -0.1992080000000  0.1354340000000 -0.3752420000000 1.0  -3.40
END
