TITL LFSO-Li5FeS2O2-201026-230918-9e45a4 0.0480 294.375300 -3.34165070E+003 5.00000 5.23231 10 (Cmmm) n - 1
REM
REM Run started: Tue, 27 Oct 2020 01:43:55 +0000 in /lustre/scratch/uccabz1/launch_tmp/launcher_2020-10-26-23-09-17-351333
REM CASTEP 20.1 from code version af48c487+ pr-geom-scf-spinfix Tue Jun 2 15:39:59 2020 +0100
REM Functional Perdew Burke Ernzerhof Relativity Koelling-Harmon Dispersion off
REM Cut-off 340.0000 eV Grid scale 1.7500 Gmax 16.5316 1/A FBSC none
REM MP grid 4 3 3 Offset 0.000 0.000 0.000 No. kpts 8 Spacing 0.07
REM Total runtime: 10271.6 s
REM Overall efficiency: 70.4 %
REM
REM
REM
REM compiler GCC version 4.9.2
REM options -cpp -iprefix /lustre/shared/ucl/apps/gcc/4.9.2/bin/../lib/gcc/x86_64-unknown-linux-gnu/4.9.2/ -mtune=corei7 -march=x86-64 -g -Og
REM COMMAND_LINE
REM seed 9200324 -566710848 989262102 1245947649 -347514980 499118112 1214573068 -245843675 -1916015094 -1694871832 318826178 -570104626
REM
REM S 3|1.8|5|6|7|30:31:32(qc=5)
REM O 2|1.5|12|13|15|20:21(qc=5)
REM Li 1|1.3|8|9|10|10U:20(qc=5)
REM Fe 3|2.2|2.0|1.0|8|9|10|40:41:32(qc=5)
REM Fe d:4.0 
REM
CELL 1.54180    3.74534   12.61339   12.61339  150.39475   90.00000   90.00000
LATT -1
SFAC Li O  S  Fe 
Li     1  0.0005010000000 -0.1558780000000 -0.3566890000000 1.0  -0.02
Li     1  0.0005010000000  0.1558780000000  0.3566890000000 1.0  -0.02
Li     1 -0.0005010000000  0.3566890000000  0.1558780000000 1.0  -0.02
Li     1 -0.0005010000000 -0.3566890000000 -0.1558780000000 1.0  -0.02
Li     1  0.0000000000000 -0.0000000000000 -0.0000000000000 1.0  -0.08
O      2  0.0000000000000 -0.0729840000000  0.0729840000000 1.0   0.58
O      2  0.0000000000000  0.0729840000000 -0.0729840000000 1.0   0.58
S      3 -0.5000000000000  0.4079790000000 -0.4079790000000 1.0   0.06
S      3  0.5000000000000 -0.4079790000000  0.4079790000000 1.0   0.06
Fe     4  0.5000000000000 -0.5000000000000  0.5000000000000 1.0   3.88
END
