TITL LFSO-Li2Fe3S3O-201026-103538-5bf123 -0.0043 369.263712 -8.66997213E+003 23.9998 24.1403 18 (C2/m) n - 1
REM
REM Run started: Mon, 26 Oct 2020 13:55:11 +0000 in /scratch/scratch/uccabz1/launch_tmp/launcher_2020-10-26-10-35-37-310629
REM CASTEP 19.11| from code version Version unavailable
REM Functional Perdew Burke Ernzerhof Relativity Koelling-Harmon Dispersion off
REM Cut-off 340.0000 eV Grid scale 1.7500 Gmax 16.5316 1/A FBSC none
REM MP grid 3 2 2 Offset 0.000 0.000 0.000 No. kpts 5 Spacing 0.07
REM Total runtime: 12157.1 s
REM Overall efficiency: 76.4 %
REM
REM
REM
REM compiler GCC version 4.9.2
REM options -cpp -iprefix /scratch/UCL/applications/gcc/4.9.2/bin/../lib/gcc/x86_64-unknown-linux-gnu/4.9.2/ -mtune=corei7 -march=x86-64 -g -O2
REM COMMAND_LINE
REM seed 1227419081 -1614957612 -1238708996 -2000336470 1879184549 1964707310 1038993089 2085264889 -1696541649 -1921541291 -1004560967 1933478888
REM
REM S 3|1.8|5|6|7|30:31:32(qc=5)
REM O 2|1.5|12|13|15|20:21(qc=5)
REM Li 1|1.3|8|9|10|10U:20(qc=5)
REM Fe 3|2.2|2.0|1.0|8|9|10|40:41:32(qc=5)
REM Fe d:4.0 
REM
CELL 1.54180    6.99886    8.26136    8.26136   70.88826  117.93408  117.93408
LATT -1
SFAC Li O  S  Fe 
Li     1  0.1602630000000  0.3372710000000  0.0434690000000 1.0  -0.03
Li     1 -0.1602630000000 -0.0434690000000 -0.3372710000000 1.0  -0.03
Li     1 -0.1602630000000 -0.3372710000000 -0.0434690000000 1.0  -0.03
Li     1  0.1602630000000  0.0434690000000  0.3372710000000 1.0  -0.03
O      2 -0.3359700000000 -0.1610300000000 -0.1610300000000 1.0   0.17
O      2  0.3359700000000  0.1610300000000  0.1610300000000 1.0   0.17
S      3 -0.2686290000000 -0.0294660000000  0.3445420000000 1.0   0.13
S      3  0.2686290000000 -0.3445420000000  0.0294660000000 1.0   0.13
S      3  0.2686290000000  0.0294660000000 -0.3445420000000 1.0   0.13
S      3 -0.2686290000000  0.3445420000000 -0.0294660000000 1.0   0.13
S      3  0.0000000000000  0.3011370000000 -0.3011370000000 1.0   0.09
S      3  0.0000000000000 -0.3011370000000  0.3011370000000 1.0   0.09
Fe     4  0.3175990000000 -0.1193580000000  0.1982750000000 1.0   3.80
Fe     4 -0.3175990000000 -0.1982750000000  0.1193580000000 1.0   3.80
Fe     4 -0.3175990000000  0.1193580000000 -0.1982750000000 1.0   3.80
Fe     4  0.3175990000000  0.1982750000000 -0.1193580000000 1.0   3.80
Fe     4  0.3025760000000 -0.2701760000000 -0.2701760000000 1.0   3.95
Fe     4 -0.3025760000000  0.2701760000000  0.2701760000000 1.0   3.95
END
