TITL LFSO-Li5FeS2O2-201026-161407-6c49b8 0.0863 421.233034 -6.69003629E+003 8.00000 8.28346 20 (Cm) n - 1
REM
REM Run started: Mon, 26 Oct 2020 20:29:26 +0000 in /scratch/scratch/uccabz1/launch_tmp/launcher_2020-10-26-16-14-05-416212
REM CASTEP 19.11| from code version Version unavailable
REM Functional Perdew Burke Ernzerhof Relativity Koelling-Harmon Dispersion off
REM Cut-off 340.0000 eV Grid scale 1.7500 Gmax 16.5316 1/A FBSC none
REM MP grid 3 2 2 Offset 0.000 0.000 0.000 No. kpts 5 Spacing 0.07
REM Total runtime: 16417 s
REM Overall efficiency: 70.4167 %
REM
REM
REM
REM compiler GCC version 4.9.2
REM options -cpp -iprefix /scratch/UCL/applications/gcc/4.9.2/bin/../lib/gcc/x86_64-unknown-linux-gnu/4.9.2/ -mtune=corei7 -march=x86-64 -g -O2
REM COMMAND_LINE
REM seed -278321371 -1377135917 -15379481 2092910163 1253992836 -1990850644 1662376766 -748200751 -540247200 1218595143 -659913453 235914289
REM
REM S 3|1.8|5|6|7|30:31:32(qc=5)
REM O 2|1.5|12|13|15|20:21(qc=5)
REM Li 1|1.3|8|9|10|10U:20(qc=5)
REM Fe 3|2.2|2.0|1.0|8|9|10|40:41:32(qc=5)
REM Fe d:4.0 
REM
CELL 1.54180    6.13644    9.27987    9.27987  108.30368  108.54955  108.54955
LATT -1
SFAC Li O  S  Fe 
Li     1 -0.2821070000000 -0.2387510000000  0.1209990000000 1.0   0.02
Li     1 -0.2821070000000  0.1209990000000 -0.2387510000000 1.0   0.02
Li     1 -0.3764790000000 -0.0941990000000 -0.5597530000000 1.0  -0.01
Li     1 -0.3764790000000 -0.5597530000000 -0.0941990000000 1.0  -0.01
Li     1  0.3152620000000  0.1182920000000 -0.1610730000000 1.0  -0.00
Li     1  0.3152620000000 -0.1610730000000  0.1182920000000 1.0  -0.00
Li     1  0.0707280000000 -0.2358930000000  0.3824790000000 1.0  -0.04
Li     1  0.0707280000000  0.3824790000000 -0.2358930000000 1.0  -0.04
Li     1  0.5664600000000  0.1993950000000 -0.4639460000000 1.0  -0.01
Li     1  0.5664600000000 -0.4639460000000  0.1993950000000 1.0  -0.01
O      2 -0.5276940000000 -0.2781070000000  0.2296760000000 1.0   0.12
O      2 -0.5276940000000  0.2296760000000 -0.2781070000000 1.0   0.12
O      2 -0.1571120000000  0.1457800000000 -0.4156870000000 1.0   0.10
O      2 -0.1571120000000 -0.4156870000000  0.1457800000000 1.0   0.10
S      3  0.1602110000000 -0.0033140000000  0.2986070000000 1.0   0.08
S      3  0.1602110000000  0.2986070000000 -0.0033140000000 1.0   0.08
S      3  0.3252570000000 -0.2967310000000 -0.1532990000000 1.0   0.00
S      3  0.3252570000000 -0.1532990000000 -0.2967310000000 1.0   0.00
Fe     4  0.1230360000000  0.5376570000000  0.1369470000000 1.0   3.75
Fe     4  0.1230360000000  0.1369470000000  0.5376570000000 1.0   3.75
END
