TITL LFSO-Li2Fe4S4O-201023-032310-eceeb5 0.0026 192.405430 -5.50203265E+003 15.9990 16.0861 11 (C2) n - 1
REM
REM Run started: Fri, 23 Oct 2020 06:17:07 +0100 in /lustre/scratch/uccabz1/launch_tmp/launcher_2020-10-23-02-23-09-264633
REM CASTEP 20.1 from code version af48c487+ pr-geom-scf-spinfix Tue Jun 2 15:39:59 2020 +0100
REM Functional Perdew Burke Ernzerhof Relativity Koelling-Harmon Dispersion off
REM Cut-off 340.0000 eV Grid scale 1.7500 Gmax 16.5316 1/A FBSC none
REM MP grid 4 4 2 Offset 0.000 0.000 0.000 No. kpts 10 Spacing 0.07
REM Total runtime: 11151.4 s
REM Overall efficiency: 79.6667 %
REM
REM
REM
REM compiler GCC version 4.9.2
REM options -cpp -iprefix /lustre/shared/ucl/apps/gcc/4.9.2/bin/../lib/gcc/x86_64-unknown-linux-gnu/4.9.2/ -mtune=corei7 -march=x86-64 -g -Og
REM COMMAND_LINE
REM seed 1386641026 1586210346 -1340210219 -2041800218 1133809792 -366950066 809055815 -1104535700 1525914291 2127461581 1122667522 772805884
REM
REM S 3|1.8|5|6|7|30:31:32(qc=5)
REM O 2|1.5|12|13|15|20:21(qc=5)
REM Li 1|1.3|8|9|10|10U:20(qc=5)
REM Fe 3|2.2|2.0|1.0|8|9|10|40:41:32(qc=5)
REM Fe d:4.0 
REM
CELL 1.54180    4.21512    4.21512   11.35852   77.62911   77.62911   89.46099
LATT -1
SFAC Li O  S  Fe 
Li     1 -0.3523000000000 -0.0240240000000 -0.2974710000000 1.0  -0.06
Li     1  0.0240240000000  0.3523000000000  0.2974710000000 1.0  -0.06
O      2 -0.0791340000000  0.0791340000000  0.5000000000000 1.0   0.20
S      3 -0.2177820000000 -0.1142490000000 -0.1042750000000 1.0   0.15
S      3  0.1142490000000  0.2177820000000  0.1042750000000 1.0   0.15
S      3 -0.5038630000000 -0.3543010000000  0.3430580000000 1.0   0.15
S      3  0.3543010000000  0.5038630000000 -0.3430580000000 1.0   0.15
Fe     4 -0.0654380000000 -0.4328790000000  0.5176230000000 1.0   3.81
Fe     4  0.4328790000000  0.0654380000000 -0.5176230000000 1.0   3.81
Fe     4  0.0673240000000  0.3924600000000 -0.1110540000000 1.0   3.85
Fe     4 -0.3924600000000 -0.0673240000000  0.1110540000000 1.0   3.85
END
