TITL LFSO-Li4Fe3S4O-201030-033926-f8d158 0.0133 329.614142 -5.03875393E+003 12.0000 12.1380 12 (R3) n - 1
REM
REM Run started: Fri, 30 Oct 2020 07:23:20 +0000 in /scratch/scratch/uccabz1/launch_tmp/launcher_2020-10-30-03-39-24-524231
REM CASTEP 19.11| from code version Version unavailable
REM Functional Perdew Burke Ernzerhof Relativity Koelling-Harmon Dispersion off
REM Cut-off 340.0000 eV Grid scale 1.7500 Gmax 16.5316 1/A FBSC none
REM MP grid 3 3 3 Offset 0.000 0.000 0.000 No. kpts 6 Spacing 0.07
REM Total runtime: 14325.4 s
REM Overall efficiency: 96.8333 %
REM
REM
REM
REM compiler GCC version 4.9.2
REM options -cpp -iprefix /scratch/UCL/applications/gcc/4.9.2/bin/../lib/gcc/x86_64-unknown-linux-gnu/4.9.2/ -mtune=corei7 -march=x86-64 -g -O2
REM COMMAND_LINE
REM seed -497440288 -56879365 943041219 1733540979 2105466791 353924087 -936672995 1647574411 -819540314 -1032898780 -1010843630 -599064395
REM
REM S 3|1.8|5|6|7|30:31:32(qc=5)
REM O 2|1.5|12|13|15|20:21(qc=5)
REM Li 1|1.3|8|9|10|10U:20(qc=5)
REM Fe 3|2.2|2.0|1.0|8|9|10|40:41:32(qc=5)
REM Fe d:4.0 
REM
CELL 1.54180    7.01956    7.01956    7.01956   99.55761   99.55761   99.55761
LATT -1
SFAC Li O  S  Fe 
Li     1 -0.2876930000000 -0.4373000000000 -0.6092130000000 1.0  -0.03
Li     1 -0.4373000000000 -0.6092130000000 -0.2876930000000 1.0  -0.03
Li     1 -0.6092130000000 -0.2876930000000 -0.4373000000000 1.0  -0.03
Li     1 -0.2361450000000 -0.2361450000000 -0.2361450000000 1.0  -0.01
O      2  0.5824900000000  0.5824900000000  0.5824900000000 1.0   0.02
S      3  0.0789870000000 -0.1884760000000 -0.3993310000000 1.0   0.13
S      3 -0.1884760000000 -0.3993310000000  0.0789870000000 1.0   0.13
S      3 -0.3993310000000  0.0789870000000 -0.1884760000000 1.0   0.13
S      3  0.1527910000000  0.1527910000000  0.1527910000000 1.0   0.10
Fe     4  0.2825500000000  0.0294560000000 -0.1226030000000 1.0   3.86
Fe     4  0.0294560000000 -0.1226030000000  0.2825500000000 1.0   3.86
Fe     4 -0.1226030000000  0.2825500000000  0.0294560000000 1.0   3.86
END
