TITL LFSO-Li6FeS3O-201027-200818-205d29 -0.0110 526.818892 -6.82746103E+003 7.99609 8.60600 22 (R-3m) n - 1
REM
REM Run started: Wed, 28 Oct 2020 03:53:47 +0000 in /lustre/scratch/uccabz1/launch_tmp/launcher_2020-10-27-20-08-16-763314
REM CASTEP 20.1 from code version af48c487+ pr-geom-scf-spinfix Tue Jun 2 15:39:59 2020 +0100
REM Functional Perdew Burke Ernzerhof Relativity Koelling-Harmon Dispersion off
REM Cut-off 340.0000 eV Grid scale 1.7500 Gmax 16.5316 1/A FBSC none
REM MP grid 3 3 3 Offset 0.000 0.000 0.000 No. kpts 6 Spacing 0.07
REM Total runtime: 30872 s
REM Overall efficiency: 73 %
REM
REM
REM
REM compiler GCC version 4.9.2
REM options -cpp -iprefix /lustre/shared/ucl/apps/gcc/4.9.2/bin/../lib/gcc/x86_64-unknown-linux-gnu/4.9.2/ -mtune=corei7 -march=x86-64 -g -Og
REM COMMAND_LINE
REM seed 2123662928 1807246215 -265413313 -463945268 -1855047215 377499280 453277711 -1277105948 -567530411 372828546 1156838662 -795952977
REM
REM S 3|1.8|5|6|7|30:31:32(qc=5)
REM O 2|1.5|12|13|15|20:21(qc=5)
REM Li 1|1.3|8|9|10|10U:20(qc=5)
REM Fe 3|2.2|2.0|1.0|8|9|10|40:41:32(qc=5)
REM Fe d:4.0 
REM
CELL 1.54180   11.94012   11.94012   11.94012   36.03022   36.03022   36.03022
LATT -1
SFAC Li O  S  Fe 
Li     1 -0.3479690000000  0.0651880000000 -0.3479690000000 1.0   0.01
Li     1 -0.3479690000000 -0.3479690000000  0.0651880000000 1.0   0.01
Li     1  0.0651880000000 -0.3479690000000 -0.3479690000000 1.0   0.01
Li     1  0.4047100000000 -0.0181870000000 -0.5953400000000 1.0   0.00
Li     1 -0.5953400000000  0.4047100000000 -0.0181870000000 1.0   0.00
Li     1 -0.0181870000000 -0.5953400000000  0.4047100000000 1.0   0.00
Li     1  0.2020530000000  0.2020460000000 -0.4161860000000 1.0  -0.02
Li     1 -0.4161860000000  0.2020530000000  0.2020460000000 1.0  -0.02
Li     1  0.2020460000000 -0.4161860000000  0.2020530000000 1.0  -0.02
Li     1 -0.1496290000000 -0.5299710000000 -0.1496220000000 1.0  -0.02
Li     1 -0.1496220000000 -0.1496290000000 -0.5299710000000 1.0  -0.02
Li     1 -0.5299710000000 -0.1496220000000 -0.1496290000000 1.0  -0.02
O      2 -0.2421080000000 -0.2421080000000 -0.2421080000000 1.0   0.00
O      2  0.2958660000000  0.2958660000000  0.2958660000000 1.0   0.01
S      3 -0.2536370000000  0.2680520000000  0.2680480000000 1.0   0.15
S      3  0.2680480000000 -0.2536370000000  0.2680520000000 1.0   0.15
S      3  0.2680520000000  0.2680480000000 -0.2536370000000 1.0   0.15
S      3 -0.2133520000000 -0.2133280000000  0.3073350000000 1.0   0.15
S      3  0.3073350000000 -0.2133520000000 -0.2133280000000 1.0   0.15
S      3 -0.2133280000000  0.3073350000000 -0.2133520000000 1.0   0.15
Fe     4  0.1050280000000  0.1050280000000  0.1050280000000 1.0   3.59
Fe     4 -0.0517120000000 -0.0517120000000 -0.0517120000000 1.0   3.60
END
