TITL LFSO-Li4Fe3S3O2-201029-232345-d84f77 0.0335 432.863084 -1.03464133E+004 24.0000 24.4161 24 (P3) n - 1
REM
REM Run started: Fri, 30 Oct 2020 10:09:33 +0000 in /lustre/scratch/uccabz1/launch_tmp/launcher_2020-10-29-23-23-43-723211
REM CASTEP 20.1 from code version af48c487+ pr-geom-scf-spinfix Tue Jun 2 15:39:59 2020 +0100
REM Functional Perdew Burke Ernzerhof Relativity Koelling-Harmon Dispersion off
REM Cut-off 340.0000 eV Grid scale 1.7500 Gmax 16.5316 1/A FBSC none
REM MP grid 3 3 2 Offset 0.000 0.000 0.000 No. kpts 5 Spacing 0.07
REM Total runtime: 38960.7 s
REM Overall efficiency: 75.8889 %
REM
REM
REM
REM compiler GCC version 4.9.2
REM options -cpp -iprefix /lustre/shared/ucl/apps/gcc/4.9.2/bin/../lib/gcc/x86_64-unknown-linux-gnu/4.9.2/ -mtune=corei7 -march=x86-64 -g -Og
REM COMMAND_LINE
REM seed 607161616 -1026489311 -1708154151 325628820 -577126619 1381002948 -375983545 -442244686 -707536440 111996234 128007921 585999331
REM
REM S 3|1.8|5|6|7|30:31:32(qc=5)
REM O 2|1.5|12|13|15|20:21(qc=5)
REM Li 1|1.3|8|9|10|10U:20(qc=5)
REM Fe 3|2.2|2.0|1.0|8|9|10|40:41:32(qc=5)
REM Fe d:4.0 
REM
CELL 1.54180    7.12160    7.12160    9.85519   90.00000   90.00000  120.00000
LATT -1
SFAC Li O  S  Fe 
Li     1 -0.3291060000000 -0.3017500000000  0.2475280000000 1.0   0.02
Li     1  0.0273560000000  0.3291060000000  0.2475280000000 1.0   0.02
Li     1  0.3017500000000 -0.0273560000000  0.2475280000000 1.0   0.02
Li     1  0.0061230000000 -0.3260370000000  0.4560710000000 1.0   0.00
Li     1 -0.3321610000000 -0.0061230000000  0.4560710000000 1.0   0.00
Li     1  0.3260370000000  0.3321610000000  0.4560710000000 1.0   0.00
Li     1  0.0000000000000 -0.0000000000000 -0.0635330000000 1.0  -0.05
Li     1 -0.3333330000000  0.3333330000000  0.2704510000000 1.0  -0.01
O      2  0.3507380000000  0.0965520000000 -0.1161260000000 1.0   0.20
O      2 -0.2541860000000 -0.3507380000000 -0.1161260000000 1.0   0.20
O      2 -0.0965520000000  0.2541860000000 -0.1161260000000 1.0   0.20
O      2  0.3333330000000 -0.3333330000000 -0.2197670000000 1.0   0.25
S      3 -0.3361390000000  0.0158050000000  0.1848730000000 1.0   0.08
S      3  0.3519440000000  0.3361390000000  0.1848730000000 1.0   0.08
S      3 -0.0158050000000 -0.3519440000000  0.1848730000000 1.0   0.08
S      3  0.3385780000000  0.0077320000000 -0.5042360000000 1.0   0.09
S      3 -0.3308460000000 -0.3385780000000 -0.5042360000000 1.0   0.09
S      3 -0.0077320000000  0.3308460000000 -0.5042360000000 1.0   0.09
Fe     4 -0.5285450000000 -0.6054200000000 -0.0364130000000 1.0   3.77
Fe     4 -0.0768760000000  0.5285450000000 -0.0364130000000 1.0   3.77
Fe     4  0.6054200000000  0.0768760000000 -0.0364130000000 1.0   3.77
Fe     4  0.3232760000000 -0.0739280000000 -0.2825280000000 1.0   3.77
Fe     4 -0.3972030000000 -0.3232760000000 -0.2825280000000 1.0   3.77
Fe     4  0.0739280000000  0.3972030000000 -0.2825280000000 1.0   3.77
END
