TITL LFSO-Li2Fe2S2O-201022-011734-76d16a 0.0009 144.346970 -3.16675408E+003 6.78347 6.94772 7 (Pm) n - 1
REM
REM Run started: Thu, 22 Oct 2020 02:05:09 +0100 in /lustre/scratch/uccabz1/launch_tmp/launcher_2020-10-22-00-17-33-267141
REM CASTEP 20.1 from code version af48c487+ pr-geom-scf-spinfix Tue Jun 2 15:39:59 2020 +0100
REM Functional Perdew Burke Ernzerhof Relativity Koelling-Harmon Dispersion off
REM Cut-off 340.0000 eV Grid scale 1.7500 Gmax 16.5316 1/A FBSC none
REM MP grid 4 3 3 Offset 0.000 0.000 0.000 No. kpts 12 Spacing 0.07
REM Total runtime: 3308.94 s
REM Overall efficiency: 91.1429 %
REM
REM
REM
REM compiler GCC version 4.9.2
REM options -cpp -iprefix /lustre/shared/ucl/apps/gcc/4.9.2/bin/../lib/gcc/x86_64-unknown-linux-gnu/4.9.2/ -mtune=corei7 -march=x86-64 -g -Og
REM COMMAND_LINE
REM seed 1100249808 -417751025 -394080997 635231484 -36685262 -1200957086 1578528497 -2086754622 513699550 2086740758 -2007108766 -136749025
REM
REM S 3|1.8|5|6|7|30:31:32(qc=5)
REM O 2|1.5|12|13|15|20:21(qc=5)
REM Li 1|1.3|8|9|10|10U:20(qc=5)
REM Fe 3|2.2|2.0|1.0|8|9|10|40:41:32(qc=5)
REM Fe d:4.0 
REM
CELL 1.54180    4.09919    6.73387    5.47825   90.00000   90.00000  107.33847
LATT -1
SFAC Li O  S  Fe 
Li     1  0.3464690000000  0.1599070000000 -0.2270540000000 1.0   0.02
Li     1  0.3464690000000  0.1599070000000  0.2270540000000 1.0   0.02
O      2 -0.5169200000000  0.3725310000000  0.0000000000000 1.0   0.05
S      3 -0.2460130000000 -0.0424020000000 -0.1980470000000 1.0   0.01
S      3 -0.2460130000000 -0.0424020000000  0.1980470000000 1.0   0.01
Fe     4 -0.3982730000000 -0.4053500000000  0.2366510000000 1.0   3.34
Fe     4 -0.3982730000000 -0.4053500000000 -0.2366510000000 1.0   3.34
END
