TITL LFSO-Li5FeSO3-201026-211810-dbb1ac 0.0118 131.356697 -3.48012888E+003 5.00000 5.04451 10 (Cm) n - 1
REM
REM Run started: Mon, 26 Oct 2020 21:40:16 +0000 in /scratch/scratch/uccabz1/launch_tmp/launcher_2020-10-26-21-18-08-465842
REM CASTEP 19.11| from code version Version unavailable
REM Functional Perdew Burke Ernzerhof Relativity Koelling-Harmon Dispersion off
REM Cut-off 340.0000 eV Grid scale 1.7500 Gmax 16.5316 1/A FBSC none
REM MP grid 3 3 3 Offset 0.000 0.000 0.000 No. kpts 10 Spacing 0.07
REM Total runtime: 1439.93 s
REM Overall efficiency: 74.625 %
REM
REM
REM
REM compiler GCC version 4.9.2
REM options -cpp -iprefix /scratch/UCL/applications/gcc/4.9.2/bin/../lib/gcc/x86_64-unknown-linux-gnu/4.9.2/ -mtune=corei7 -march=x86-64 -g -O2
REM COMMAND_LINE
REM seed 6228837 -1889184714 -94718114 -8553308 -14935629 -2031218249 1001120986 -45802664 -876708918 1964302394 -1680764341 -1566042059
REM
REM S 3|1.8|5|6|7|30:31:32(qc=5)
REM O 2|1.5|12|13|15|20:21(qc=5)
REM Li 1|1.3|8|9|10|10U:20(qc=5)
REM Fe 3|2.2|2.0|1.0|8|9|10|40:41:32(qc=5)
REM Fe d:4.0 
REM
CELL 1.54180    5.15724    5.15724    5.67471  110.84109  110.84109   86.96704
LATT -1
SFAC Li O  S  Fe 
Li     1  0.5634010000000 -0.0587980000000 -0.1625080000000 1.0   0.01
Li     1 -0.0587980000000  0.5634010000000 -0.1625080000000 1.0   0.01
Li     1  0.1165030000000 -0.3677590000000  0.3605560000000 1.0  -0.07
Li     1 -0.3677590000000  0.1165030000000  0.3605560000000 1.0  -0.07
Li     1  0.0979370000000  0.0979370000000  0.3361510000000 1.0   0.08
O      2 -0.1156690000000  0.4371510000000 -0.5342230000000 1.0   0.28
O      2  0.4371510000000 -0.1156690000000 -0.5342230000000 1.0   0.28
O      2 -0.2121000000000 -0.2121000000000  0.1172820000000 1.0   0.22
S      3  0.2383990000000  0.2383990000000  0.0085750000000 1.0   0.21
Fe     4 -0.4053190000000 -0.4053190000000  0.2529330000000 1.0   4.06
END
