TITL LFSO-LiFe3S4O-201028-182658-bea637 0.0935 441.469773 -8.87559709E+003 22.0000 23.1234 18 (Pnn2) n - 1
REM
REM Run started: Wed, 28 Oct 2020 20:40:00 +0000 in /scratch/scratch/uccabz1/launch_tmp/launcher_2020-10-28-18-26-56-929737
REM CASTEP 19.11| from code version Version unavailable
REM Functional Perdew Burke Ernzerhof Relativity Koelling-Harmon Dispersion off
REM Cut-off 340.0000 eV Grid scale 1.7500 Gmax 16.5316 1/A FBSC none
REM MP grid 3 2 2 Offset 0.000 0.000 0.000 No. kpts 2 Spacing 0.07
REM Total runtime: 8738.31 s
REM Overall efficiency: 71.25 %
REM
REM
REM
REM compiler GCC version 4.9.2
REM options -cpp -iprefix /scratch/UCL/applications/gcc/4.9.2/bin/../lib/gcc/x86_64-unknown-linux-gnu/4.9.2/ -mtune=corei7 -march=x86-64 -g -O2
REM COMMAND_LINE
REM seed 441260286 -948276150 1241873007 -1756847681 -1346003452 -1971295572 -1889838048 -1831008451 1860727035 529064206 -866370221 -328822053
REM
REM S 3|1.8|5|6|7|30:31:32(qc=5)
REM O 2|1.5|12|13|15|20:21(qc=5)
REM Li 1|1.3|8|9|10|10U:20(qc=5)
REM Fe 3|2.2|2.0|1.0|8|9|10|40:41:32(qc=5)
REM Fe d:4.0 
REM
CELL 1.54180    4.75470   12.48724    7.43553   90.00000   90.00000   90.00000
LATT -1
SFAC Li O  S  Fe 
Li     1 -0.5000000000000  0.1956390000000  0.0000000000000 1.0   0.01
Li     1 -0.0000000000000 -0.3043610000000 -0.5000000000000 1.0   0.01
O      2 -0.0000000000000 -0.1497850000000 -0.5000000000000 1.0   0.18
O      2 -0.5000000000000  0.3502150000000  0.0000000000000 1.0   0.18
S      3 -0.2992450000000 -0.4018900000000 -0.2866600000000 1.0   0.02
S      3  0.2992450000000 -0.4018900000000  0.2866600000000 1.0   0.02
S      3  0.2007550000000  0.0981100000000 -0.2133400000000 1.0   0.02
S      3 -0.2007550000000  0.0981100000000  0.2133400000000 1.0   0.02
S      3 -0.2871950000000 -0.1642190000000  0.0416480000000 1.0  -0.03
S      3  0.2871950000000 -0.1642190000000 -0.0416480000000 1.0  -0.03
S      3  0.2128050000000  0.3357810000000  0.4583520000000 1.0  -0.03
S      3 -0.2128050000000  0.3357810000000 -0.4583520000000 1.0  -0.03
Fe     4  0.2840650000000  0.4302410000000  0.1664820000000 1.0   3.78
Fe     4 -0.2840650000000  0.4302410000000 -0.1664820000000 1.0   3.78
Fe     4 -0.2159350000000 -0.0697590000000  0.3335180000000 1.0   3.78
Fe     4  0.2159350000000 -0.0697590000000 -0.3335180000000 1.0   3.78
Fe     4 -0.0000000000000 -0.0083950000000  0.0000000000000 1.0   3.28
Fe     4 -0.5000000000000 -0.5083950000000 -0.5000000000000 1.0   3.28
END
