TITL LFSO-Li5FeS2O2-201025-182400-b2301d 0.0004 320.771698 -6.69011402E+003 9.99024 10.0239 20 (P3) n - 1
REM
REM Run started: Sun, 25 Oct 2020 22:39:13 +0000 in /scratch/scratch/uccabz1/launch_tmp/launcher_2020-10-25-18-23-58-936533
REM CASTEP 19.11| from code version Version unavailable
REM Functional Perdew Burke Ernzerhof Relativity Koelling-Harmon Dispersion off
REM Cut-off 340.0000 eV Grid scale 1.7500 Gmax 16.5316 1/A FBSC none
REM MP grid 2 3 3 Offset 0.000 0.000 0.000 No. kpts 5 Spacing 0.07
REM Total runtime: 23343.5 s
REM Overall efficiency: 73.1538 %
REM
REM
REM
REM compiler GCC version 4.9.2
REM options -cpp -iprefix /scratch/UCL/applications/gcc/4.9.2/bin/../lib/gcc/x86_64-unknown-linux-gnu/4.9.2/ -mtune=corei7 -march=x86-64 -g -O2
REM COMMAND_LINE
REM seed -1608418116 -87316193 -754850037 -1737062805 -121316062 1228936487 863839049 -34194391 -665571807 1110619190 1231166908 1303675875
REM
REM S 3|1.8|5|6|7|30:31:32(qc=5)
REM O 2|1.5|12|13|15|20:21(qc=5)
REM Li 1|1.3|8|9|10|10U:20(qc=5)
REM Fe 3|2.2|2.0|1.0|8|9|10|40:41:32(qc=5)
REM Fe d:4.0 
REM
CELL 1.54180    8.56770    6.57507    6.57507  120.00000   90.00000   90.00000
LATT -1
SFAC Li O  S  Fe 
Li     1  0.1758130000000 -0.2049370000000 -0.2781440000000 1.0   0.01
Li     1  0.1758130000000  0.2781440000000  0.0732070000000 1.0   0.01
Li     1  0.1758130000000 -0.0732070000000  0.2049370000000 1.0   0.01
Li     1  0.3525890000000  0.0679460000000  0.6280830000000 1.0  -0.01
Li     1  0.3525890000000 -0.6280830000000 -0.5601370000000 1.0  -0.01
Li     1  0.3525890000000  0.5601370000000 -0.0679460000000 1.0  -0.01
Li     1 -0.0610290000000  0.0272880000000 -0.2887390000000 1.0   0.02
Li     1 -0.0610290000000  0.2887390000000  0.3160260000000 1.0   0.02
Li     1 -0.0610290000000 -0.3160260000000 -0.0272880000000 1.0   0.02
Li     1  0.1295350000000  0.3333330000000 -0.3333330000000 1.0  -0.02
O      2  0.1525610000000  0.0903300000000 -0.2473030000000 1.0   0.04
O      2  0.1525610000000  0.2473030000000  0.3376330000000 1.0   0.04
O      2  0.1525610000000 -0.3376330000000 -0.0903300000000 1.0   0.04
O      2  0.4602760000000  0.3333330000000 -0.3333330000000 1.0   0.36
S      3 -0.2093900000000  0.3620500000000  0.0048810000000 1.0   0.39
S      3 -0.2093900000000 -0.0048810000000  0.3571690000000 1.0   0.39
S      3 -0.2093900000000 -0.3571690000000 -0.3620500000000 1.0   0.39
S      3  0.4033110000000 -0.3333330000000  0.3333330000000 1.0   0.30
Fe     4 -0.3343910000000 -0.3333330000000  0.3333330000000 1.0   3.98
Fe     4 -0.3279650000000  0.3333330000000 -0.3333330000000 1.0   4.03
END
