TITL LFSO-Li4Fe2S3O-201025-215259-013845 0.0202 194.204358 -3.87198959E+003 7.99792 8.07799 10 (P222) n - 1
REM
REM Run started: Sun, 25 Oct 2020 23:06:30 +0000 in /lustre/scratch/uccabz1/launch_tmp/launcher_2020-10-25-21-52-58-159777
REM CASTEP 20.1 from code version af48c487+ pr-geom-scf-spinfix Tue Jun 2 15:39:59 2020 +0100
REM Functional Perdew Burke Ernzerhof Relativity Koelling-Harmon Dispersion off
REM Cut-off 340.0000 eV Grid scale 1.7500 Gmax 16.5316 1/A FBSC none
REM MP grid 4 3 2 Offset 0.000 0.000 0.000 No. kpts 4 Spacing 0.07
REM Total runtime: 4494.39 s
REM Overall efficiency: 86 %
REM
REM
REM
REM compiler GCC version 4.9.2
REM options -cpp -iprefix /lustre/shared/ucl/apps/gcc/4.9.2/bin/../lib/gcc/x86_64-unknown-linux-gnu/4.9.2/ -mtune=corei7 -march=x86-64 -g -Og
REM COMMAND_LINE
REM seed -1470933035 -1928069298 -437096566 808537290 1569460530 -2116451642 705655374 -1257625714 894920296 -530517554 142916203 -1841401204
REM
REM S 3|1.8|5|6|7|30:31:32(qc=5)
REM O 2|1.5|12|13|15|20:21(qc=5)
REM Li 1|1.3|8|9|10|10U:20(qc=5)
REM Fe 3|2.2|2.0|1.0|8|9|10|40:41:32(qc=5)
REM Fe d:4.0 
REM
CELL 1.54180    3.63535    6.40500    8.34054   90.00000   90.00000   90.00000
LATT -1
SFAC Li O  S  Fe 
Li     1 -0.0260250000000  0.2289360000000 -0.3340340000000 1.0  -0.00
Li     1  0.0260250000000 -0.2289360000000 -0.3340340000000 1.0  -0.00
Li     1  0.0260250000000  0.2289360000000  0.3340340000000 1.0  -0.00
Li     1 -0.0260250000000 -0.2289360000000  0.3340340000000 1.0  -0.00
O      2 -0.5000000000000  0.0000000000000  0.0000000000000 1.0   0.27
S      3 -0.5000000000000 -0.5000000000000 -0.2344290000000 1.0   0.10
S      3  0.5000000000000 -0.5000000000000  0.2344290000000 1.0   0.10
S      3 -0.5000000000000  0.0000000000000  0.5000000000000 1.0   0.02
Fe     4  0.5000000000000  0.2832010000000  0.0000000000000 1.0   3.75
Fe     4 -0.5000000000000 -0.2832010000000  0.0000000000000 1.0   3.75
END
