TITL LFSO-Li6FeSO3-201028-065746-a89b62 -0.0317 162.713545 -3.67847730E+003 3.99998 4.09735 11 (P-1) n - 1
REM
REM Run started: Wed, 28 Oct 2020 09:05:51 +0000 in /scratch/scratch/uccabz1/launch_tmp/launcher_2020-10-28-06-57-44-521460
REM CASTEP 19.11| from code version Version unavailable
REM Functional Perdew Burke Ernzerhof Relativity Koelling-Harmon Dispersion off
REM Cut-off 340.0000 eV Grid scale 1.7500 Gmax 16.5316 1/A FBSC none
REM MP grid 7 2 4 Offset 0.000 0.000 0.000 No. kpts 28 Spacing 0.07
REM Total runtime: 8656.05 s
REM Overall efficiency: 92.75 %
REM
REM
REM
REM compiler GCC version 4.9.2
REM options -cpp -iprefix /scratch/UCL/applications/gcc/4.9.2/bin/../lib/gcc/x86_64-unknown-linux-gnu/4.9.2/ -mtune=corei7 -march=x86-64 -g -O2
REM COMMAND_LINE
REM seed -167467859 1329614975 -826609739 1248758448 1455965674 2038056242 -833459701 1218291581 1530931630 -724384049 1986293895 -378572167
REM
REM S 3|1.8|5|6|7|30:31:32(qc=5)
REM O 2|1.5|12|13|15|20:21(qc=5)
REM Li 1|1.3|8|9|10|10U:20(qc=5)
REM Fe 3|2.2|2.0|1.0|8|9|10|40:41:32(qc=5)
REM Fe d:4.0 
REM
CELL 1.54180    5.99092    7.58213    9.14538   96.15510  156.60562   81.50920
LATT -1
SFAC Li O  S  Fe 
Li     1 -0.6005780000000 -0.1185850000000  0.1457580000000 1.0  -0.01
Li     1  0.6005780000000  0.1185850000000 -0.1457580000000 1.0  -0.01
Li     1  0.4411150000000 -0.5356310000000 -0.3287320000000 1.0  -0.04
Li     1 -0.4411150000000  0.5356310000000  0.3287320000000 1.0  -0.04
Li     1 -0.2489200000000  0.2668480000000 -0.4290000000000 1.0  -0.03
Li     1  0.2489200000000 -0.2668480000000  0.4290000000000 1.0  -0.03
O      2 -0.2070740000000 -0.3336790000000  0.3157060000000 1.0   0.07
O      2  0.2070740000000  0.3336790000000 -0.3157060000000 1.0   0.07
O      2 -0.5000000000000 -0.5000000000000 -0.5000000000000 1.0   0.13
S      3 -0.5000000000000  0.0000000000000 -0.5000000000000 1.0   0.01
Fe     4 -0.5000000000000  0.5000000000000  0.0000000000000 1.0   3.87
END
