TITL LFSO-Li4Fe3S3O2-201029-004911-2c0a2f 0.0132 269.679305 -5.17103064E+003 12.0000 12.0753 12 (R3) n - 1
REM
REM Run started: Thu, 29 Oct 2020 08:18:50 +0000 in /lustre/scratch/uccabz1/launch_tmp/launcher_2020-10-29-00-49-09-573276
REM CASTEP 20.1 from code version af48c487+ pr-geom-scf-spinfix Tue Jun 2 15:39:59 2020 +0100
REM Functional Perdew Burke Ernzerhof Relativity Koelling-Harmon Dispersion off
REM Cut-off 340.0000 eV Grid scale 1.7500 Gmax 16.5316 1/A FBSC none
REM MP grid 3 3 3 Offset 0.000 0.000 0.000 No. kpts 6 Spacing 0.07
REM Total runtime: 27946.9 s
REM Overall efficiency: 97.0769 %
REM
REM
REM
REM compiler GCC version 4.9.2
REM options -cpp -iprefix /lustre/shared/ucl/apps/gcc/4.9.2/bin/../lib/gcc/x86_64-unknown-linux-gnu/4.9.2/ -mtune=corei7 -march=x86-64 -g -Og
REM COMMAND_LINE
REM seed -628112909 -475897233 243548273 -1236066001 -177562655 -1751869041 87644793 833551420 1240965451 956988151 1151183132 1538242106
REM
REM S 3|1.8|5|6|7|30:31:32(qc=5)
REM O 2|1.5|12|13|15|20:21(qc=5)
REM Li 1|1.3|8|9|10|10U:20(qc=5)
REM Fe 3|2.2|2.0|1.0|8|9|10|40:41:32(qc=5)
REM Fe d:4.0 
REM
CELL 1.54180    7.43983    7.43983    7.43983  112.88168  112.88168  112.88168
LATT -1
SFAC Li O  S  Fe 
Li     1  0.0441220000000 -0.1749050000000  0.5067370000000 1.0  -0.03
Li     1  0.5067370000000  0.0441220000000 -0.1749050000000 1.0  -0.03
Li     1 -0.1749050000000  0.5067370000000  0.0441220000000 1.0  -0.03
Li     1 -0.1416530000000 -0.1416530000000 -0.1416530000000 1.0   0.01
O      2  0.1499520000000  0.1499520000000  0.1499520000000 1.0   0.21
O      2 -0.4360710000000 -0.4360710000000 -0.4360710000000 1.0   0.19
S      3  0.2840030000000 -0.1672800000000  0.3563360000000 1.0   0.09
S      3  0.3563360000000  0.2840030000000 -0.1672800000000 1.0   0.09
S      3 -0.1672800000000  0.3563360000000  0.2840030000000 1.0   0.09
Fe     4 -0.7776790000000 -0.5120940000000  0.3491070000000 1.0   3.81
Fe     4  0.3491070000000 -0.7776790000000 -0.5120940000000 1.0   3.81
Fe     4 -0.5120940000000  0.3491070000000 -0.7776790000000 1.0   3.81
END
