TITL LFSO-Li2Fe3S3O-201026-015824-326900 -0.0417 156.760271 -4.32993964E+003 -10.7904 11.0241 9 (Fmm2) n - 1
REM
REM Run started: Mon, 26 Oct 2020 02:52:41 +0000 in /scratch/scratch/uccabz1/launch_tmp/launcher_2020-10-26-01-58-22-703437
REM CASTEP 19.11| from code version Version unavailable
REM Functional Perdew Burke Ernzerhof Relativity Koelling-Harmon Dispersion off
REM Cut-off 340.0000 eV Grid scale 1.7500 Gmax 16.5316 1/A FBSC none
REM MP grid 4 4 2 Offset 0.000 0.000 0.000 No. kpts 10 Spacing 0.07
REM Total runtime: 3286.49 s
REM Overall efficiency: 78.375 %
REM
REM
REM
REM compiler GCC version 4.9.2
REM options -cpp -iprefix /scratch/UCL/applications/gcc/4.9.2/bin/../lib/gcc/x86_64-unknown-linux-gnu/4.9.2/ -mtune=corei7 -march=x86-64 -g -O2
REM COMMAND_LINE
REM seed -1046342482 -1437750597 -165147630 742135139 1328559055 1136065561 219535317 -256100150 1434830202 883026623 -735589820 849674305
REM
REM S 3|1.8|5|6|7|30:31:32(qc=5)
REM O 2|1.5|12|13|15|20:21(qc=5)
REM Li 1|1.3|8|9|10|10U:20(qc=5)
REM Fe 3|2.2|2.0|1.0|8|9|10|40:41:32(qc=5)
REM Fe d:4.0 
REM
CELL 1.54180    4.33705    4.33705    9.39272   97.98229   97.98229  113.48521
LATT -1
SFAC Li O  S  Fe 
Li     1  0.5300490000000  0.5300490000000  0.5077700000000 1.0   0.03
Li     1 -0.0222790000000 -0.0222790000000  0.5077700000000 1.0   0.03
O      2 -0.1616080000000 -0.1616080000000 -0.3232160000000 1.0  -0.09
S      3  0.4276780000000 -0.0727410000000  0.3549370000000 1.0  -0.12
S      3 -0.0727410000000  0.4276780000000  0.3549370000000 1.0  -0.12
S      3 -0.0007210000000 -0.0007210000000 -0.0014430000000 1.0  -0.04
Fe     4  0.3610840000000 -0.2707580000000  0.0903260000000 1.0  -3.35
Fe     4 -0.2707580000000  0.3610840000000  0.0903260000000 1.0  -3.35
Fe     4  0.3949290000000  0.3949290000000 -0.2101420000000 1.0  -3.79
END
