TITL LFSO-Li4Fe3S3O2-201030-055332-11fa6e 0.0137 712.217879 -1.03441234E+004 24.0000 24.4713 24 (I4) n - 1
REM
REM Run started: Fri, 30 Oct 2020 17:05:17 +0000 in /lustre/scratch/uccabz1/launch_tmp/launcher_2020-10-30-05-53-30-951852
REM CASTEP 20.1 from code version af48c487+ pr-geom-scf-spinfix Tue Jun 2 15:39:59 2020 +0100
REM Functional Perdew Burke Ernzerhof Relativity Koelling-Harmon Dispersion off
REM Cut-off 340.0000 eV Grid scale 1.7500 Gmax 16.5316 1/A FBSC none
REM MP grid 2 2 2 Offset 0.000 0.000 0.000 No. kpts 3 Spacing 0.07
REM Total runtime: 45809.5 s
REM Overall efficiency: 89.625 %
REM
REM
REM
REM compiler GCC version 4.9.2
REM options -cpp -iprefix /lustre/shared/ucl/apps/gcc/4.9.2/bin/../lib/gcc/x86_64-unknown-linux-gnu/4.9.2/ -mtune=corei7 -march=x86-64 -g -Og
REM COMMAND_LINE
REM seed 1658463929 2092630668 1775060639 566521487 1091546822 313208755 -206191310 -287802559 -853868131 1252049640 -1800356296 1523903843
REM
REM S 3|1.8|5|6|7|30:31:32(qc=5)
REM O 2|1.5|12|13|15|20:21(qc=5)
REM Li 1|1.3|8|9|10|10U:20(qc=5)
REM Fe 3|2.2|2.0|1.0|8|9|10|40:41:32(qc=5)
REM Fe d:4.0 
REM
CELL 1.54180    9.74720    9.74720    9.74720  107.44617  110.49314  110.49314
LATT -1
SFAC Li O  S  Fe 
Li     1 -0.2195520000000  0.3520440000000 -0.2929730000000 1.0  -0.02
Li     1  0.2195520000000 -0.0734210000000 -0.4284030000000 1.0  -0.02
Li     1  0.3549830000000 -0.2929730000000 -0.0734210000000 1.0  -0.02
Li     1 -0.3549830000000 -0.4284030000000  0.3520440000000 1.0  -0.02
Li     1  0.1860100000000 -0.2035630000000  0.1858430000000 1.0  -0.03
Li     1 -0.1860100000000 -0.0001670000000 -0.3895730000000 1.0  -0.03
Li     1  0.3894060000000  0.1858430000000 -0.0001670000000 1.0  -0.03
Li     1 -0.3894060000000 -0.3895730000000 -0.2035630000000 1.0  -0.03
O      2  0.2844840000000 -0.1745940000000  0.4216120000000 1.0   0.16
O      2 -0.2844840000000  0.1371280000000  0.5409220000000 1.0   0.16
O      2 -0.4037940000000  0.4216120000000  0.1371280000000 1.0   0.16
O      2  0.4037940000000  0.5409220000000 -0.1745940000000 1.0   0.16
S      3 -0.1031650000000 -0.3980620000000 -0.0345820000000 1.0   0.11
S      3  0.1031650000000  0.0685830000000 -0.2948970000000 1.0   0.11
S      3  0.3634800000000 -0.0345820000000  0.0685830000000 1.0   0.11
S      3 -0.3634800000000 -0.2948970000000 -0.3980620000000 1.0   0.11
S      3  0.5000000000000 -0.2694340000000  0.2305660000000 1.0   0.24
S      3 -0.5000000000000  0.2305660000000 -0.2694340000000 1.0   0.24
Fe     4 -0.4156930000000  0.0160240000000  0.2952950000000 1.0   3.81
Fe     4  0.4156930000000 -0.2890120000000  0.4317170000000 1.0   3.81
Fe     4  0.2792710000000  0.2952950000000 -0.2890120000000 1.0   3.81
Fe     4 -0.2792710000000  0.4317170000000  0.0160240000000 1.0   3.81
Fe     4  0.5000000000000  0.0295300000000  0.5295300000000 1.0   3.68
Fe     4 -0.5000000000000  0.5295300000000  0.0295300000000 1.0   3.68
END
