TITL LFSO-LiFe3S4O-201028-100420-47e9fd 0.0079 331.374101 -8.87360211E+003 21.8870 23.4283 18 (R3) n - 1
REM
REM Run started: Wed, 28 Oct 2020 13:26:54 +0000 in /scratch/scratch/uccabz1/launch_tmp/launcher_2020-10-28-10-04-18-413189
REM CASTEP 19.11| from code version Version unavailable
REM Functional Perdew Burke Ernzerhof Relativity Koelling-Harmon Dispersion off
REM Cut-off 340.0000 eV Grid scale 1.7500 Gmax 16.5316 1/A FBSC none
REM MP grid 3 3 3 Offset 0.000 0.000 0.000 No. kpts 6 Spacing 0.07
REM Total runtime: 13124.4 s
REM Overall efficiency: 73.625 %
REM
REM
REM
REM compiler GCC version 4.9.2
REM options -cpp -iprefix /scratch/UCL/applications/gcc/4.9.2/bin/../lib/gcc/x86_64-unknown-linux-gnu/4.9.2/ -mtune=corei7 -march=x86-64 -g -O2
REM COMMAND_LINE
REM seed 1737739567 1100754792 1077852234 -857555473 -1828090853 374913318 936519133 -186921695 -217771468 589923220 -1248756762 -532951667
REM
REM S 3|1.8|5|6|7|30:31:32(qc=5)
REM O 2|1.5|12|13|15|20:21(qc=5)
REM Li 1|1.3|8|9|10|10U:20(qc=5)
REM Fe 3|2.2|2.0|1.0|8|9|10|40:41:32(qc=5)
REM Fe d:4.0 
REM
CELL 1.54180    7.34258    7.34258    8.26694   63.63473   63.63473   60.00000
LATT -1
SFAC Li O  S  Fe 
Li     1  0.2007830000000  0.2007830000000  0.3976510000000 1.0  -0.04
Li     1 -0.4663330000000 -0.4663330000000  0.3989990000000 1.0  -0.08
O      2  0.1089270000000  0.1089270000000 -0.3267820000000 1.0   0.14
O      2 -0.3817320000000 -0.3817320000000  0.1451960000000 1.0   0.09
S      3  0.0455760000000 -0.4289590000000  0.1126630000000 1.0  -0.14
S      3  0.2707200000000  0.0455760000000  0.1126630000000 1.0  -0.14
S      3 -0.4289590000000  0.2707200000000  0.1126630000000 1.0  -0.14
S      3  0.0857460000000 -0.4419870000000 -0.3389400000000 1.0   0.09
S      3 -0.3048190000000  0.0857460000000 -0.3389400000000 1.0   0.09
S      3 -0.4419870000000 -0.3048190000000 -0.3389400000000 1.0   0.09
S      3 -0.0513790000000 -0.0513790000000  0.1541360000000 1.0  -0.24
S      3  0.4298970000000  0.4298970000000 -0.2896910000000 1.0  -0.00
Fe     4 -0.1216310000000  0.3283630000000  0.1140000000000 1.0   3.59
Fe     4 -0.3207320000000 -0.1216310000000  0.1140000000000 1.0   3.59
Fe     4  0.3283630000000 -0.3207320000000  0.1140000000000 1.0   3.59
Fe     4 -0.1626960000000  0.3503940000000 -0.2244160000000 1.0   3.79
Fe     4  0.0367190000000 -0.1626960000000 -0.2244160000000 1.0   3.79
Fe     4  0.3503940000000  0.0367190000000 -0.2244160000000 1.0   3.79
END
