TITL LFSO-Li2Fe3S3O-201025-152413-cfc4c1 -0.0568 371.136580 -8.66893083E+003 23.4593 23.6385 18 (Aem2) n - 1
REM
REM Run started: Sun, 25 Oct 2020 19:32:07 +0000 in /lustre/scratch/uccabz1/launch_tmp/launcher_2020-10-25-15-24-12-096789
REM CASTEP 20.1 from code version af48c487+ pr-geom-scf-spinfix Tue Jun 2 15:39:59 2020 +0100
REM Functional Perdew Burke Ernzerhof Relativity Koelling-Harmon Dispersion off
REM Cut-off 340.0000 eV Grid scale 1.7500 Gmax 16.5316 1/A FBSC none
REM MP grid 3 3 2 Offset 0.000 0.000 0.000 No. kpts 4 Spacing 0.07
REM Total runtime: 15743.8 s
REM Overall efficiency: 77.6667 %
REM
REM
REM
REM compiler GCC version 4.9.2
REM options -cpp -iprefix /lustre/shared/ucl/apps/gcc/4.9.2/bin/../lib/gcc/x86_64-unknown-linux-gnu/4.9.2/ -mtune=corei7 -march=x86-64 -g -Og
REM COMMAND_LINE
REM seed -1854243084 -1484415310 -170127557 -407268294 2059182336 -2118749654 -1462896292 -1399894239 -54238076 -548099795 -1993585927 -2030164004
REM
REM S 3|1.8|5|6|7|30:31:32(qc=5)
REM O 2|1.5|12|13|15|20:21(qc=5)
REM Li 1|1.3|8|9|10|10U:20(qc=5)
REM Fe 3|2.2|2.0|1.0|8|9|10|40:41:32(qc=5)
REM Fe d:4.0 
REM
CELL 1.54180    7.82442    7.82442    7.88263   90.00000   90.00000   50.26921
LATT -1
SFAC Li O  S  Fe 
Li     1 -0.3455600000000 -0.3241120000000 -0.2630430000000 1.0  -0.04
Li     1  0.3241120000000  0.3455600000000  0.2630430000000 1.0  -0.04
Li     1 -0.1758880000000 -0.1544400000000 -0.2630430000000 1.0  -0.04
Li     1  0.1544400000000  0.1758880000000  0.2630430000000 1.0  -0.04
O      2 -0.4846610000000 -0.0153390000000 -0.2712380000000 1.0   0.21
O      2  0.0153390000000  0.4846610000000  0.2712380000000 1.0   0.21
S      3  0.0560700000000 -0.0634560000000  0.2805040000000 1.0   0.11
S      3  0.0634560000000 -0.0560700000000 -0.2805040000000 1.0   0.11
S      3 -0.4365440000000 -0.5560700000000  0.2805040000000 1.0   0.11
S      3  0.5560700000000  0.4365440000000 -0.2805040000000 1.0   0.11
S      3  0.0085350000000  0.4914650000000 -0.1185680000000 1.0   0.08
S      3 -0.4914650000000 -0.0085350000000  0.1185680000000 1.0   0.08
Fe     4 -0.2582150000000  0.5717280000000  0.1577290000000 1.0   3.81
Fe     4 -0.5717280000000  0.2582150000000 -0.1577290000000 1.0   3.81
Fe     4 -0.0717280000000 -0.2417850000000  0.1577290000000 1.0   3.81
Fe     4  0.2417850000000  0.0717280000000 -0.1577290000000 1.0   3.81
Fe     4  0.3108760000000 -0.3108760000000 -0.5000000000000 1.0   3.68
Fe     4 -0.1891240000000  0.1891240000000  0.5000000000000 1.0   3.68
END
