TITL LFSO-Li4Fe3S4O-201029-184543-a2f296 0.0063 954.321333 -1.00718860E+004 22.0000 22.7871 24 (Pmm2) n - 1
REM
REM Run started: Fri, 30 Oct 2020 12:18:28 +0000 in /lustre/scratch/uccabz1/launch_tmp/launcher_2020-10-29-18-45-42-057828
REM CASTEP 20.1 from code version af48c487+ pr-geom-scf-spinfix Tue Jun 2 15:39:59 2020 +0100
REM Functional Perdew Burke Ernzerhof Relativity Koelling-Harmon Dispersion off
REM Cut-off 340.0000 eV Grid scale 1.7500 Gmax 16.5316 1/A FBSC none
REM MP grid 4 1 1 Offset 0.000 0.000 0.000 No. kpts 2 Spacing 0.07
REM Total runtime: 67715.7 s
REM Overall efficiency: 77.4615 %
REM
REM
REM
REM compiler GCC version 4.9.2
REM options -cpp -iprefix /lustre/shared/ucl/apps/gcc/4.9.2/bin/../lib/gcc/x86_64-unknown-linux-gnu/4.9.2/ -mtune=corei7 -march=x86-64 -g -Og
REM COMMAND_LINE
REM seed -641860048 -810007541 -1305387657 1555227560 1984973371 1387848387 1827816580 1092337910 1281209053 558193061 -1694443544 -1857158066
REM
REM S 3|1.8|5|6|7|30:31:32(qc=5)
REM O 2|1.5|12|13|15|20:21(qc=5)
REM Li 1|1.3|8|9|10|10U:20(qc=5)
REM Fe 3|2.2|2.0|1.0|8|9|10|40:41:32(qc=5)
REM Fe d:4.0 
REM
CELL 1.54180    3.91006   15.80186   15.44555   90.00000   90.00000   90.00000
LATT -1
SFAC Li O  S  Fe 
Li     1 -0.2595050000000  0.0864710000000 -0.1714000000000 1.0  -0.09
Li     1 -0.2595050000000 -0.0864710000000  0.1714000000000 1.0  -0.09
Li     1 -0.2595050000000 -0.0864710000000 -0.1714000000000 1.0  -0.09
Li     1 -0.2595050000000  0.0864710000000  0.1714000000000 1.0  -0.09
Li     1  0.1226120000000  0.2630490000000 -0.1486440000000 1.0   0.01
Li     1  0.1226120000000 -0.2630490000000  0.1486440000000 1.0   0.01
Li     1  0.1226120000000 -0.2630490000000 -0.1486440000000 1.0   0.01
Li     1  0.1226120000000  0.2630490000000  0.1486440000000 1.0   0.01
O      2  0.4805210000000  0.0000000000000  0.2562470000000 1.0   0.19
O      2  0.4805210000000 -0.0000000000000 -0.2562470000000 1.0   0.19
S      3 -0.3709000000000 -0.2279270000000 -0.0695450000000 1.0  -0.01
S      3 -0.3709000000000  0.2279270000000  0.0695450000000 1.0  -0.01
S      3 -0.3709000000000  0.2279270000000 -0.0695450000000 1.0  -0.01
S      3 -0.3709000000000 -0.2279270000000  0.0695450000000 1.0  -0.01
S      3 -0.1265290000000 -0.1930870000000 -0.2813630000000 1.0   0.11
S      3 -0.1265290000000  0.1930870000000  0.2813630000000 1.0   0.11
S      3 -0.1265290000000  0.1930870000000 -0.2813630000000 1.0   0.11
S      3 -0.1265290000000 -0.1930870000000  0.2813630000000 1.0   0.11
Fe     4  0.3618250000000  0.1129370000000 -0.3005250000000 1.0   3.82
Fe     4  0.3618250000000 -0.1129370000000  0.3005250000000 1.0   3.82
Fe     4  0.3618250000000 -0.1129370000000 -0.3005250000000 1.0   3.82
Fe     4  0.3618250000000  0.1129370000000  0.3005250000000 1.0   3.82
Fe     4 -0.3542840000000  0.0870700000000  0.0000000000000 1.0   3.11
Fe     4 -0.3542840000000 -0.0870700000000  0.0000000000000 1.0   3.11
END
