TITL LFSO-Li4Fe2S3O-201026-162043-14ead5 -0.0049 174.488374 -3.87321346E+003 8.00000 8.11049 10 (P2) n - 1
REM
REM Run started: Mon, 26 Oct 2020 17:32:45 +0000 in /lustre/scratch/uccabz1/launch_tmp/launcher_2020-10-26-16-20-41-717672
REM CASTEP 20.1 from code version af48c487+ pr-geom-scf-spinfix Tue Jun 2 15:39:59 2020 +0100
REM Functional Perdew Burke Ernzerhof Relativity Koelling-Harmon Dispersion off
REM Cut-off 340.0000 eV Grid scale 1.7500 Gmax 16.5316 1/A FBSC none
REM MP grid 4 3 3 Offset 0.000 0.000 0.000 No. kpts 12 Spacing 0.07
REM Total runtime: 4511.24 s
REM Overall efficiency: 93.8571 %
REM
REM
REM
REM compiler GCC version 4.9.2
REM options -cpp -iprefix /lustre/shared/ucl/apps/gcc/4.9.2/bin/../lib/gcc/x86_64-unknown-linux-gnu/4.9.2/ -mtune=corei7 -march=x86-64 -g -Og
REM COMMAND_LINE
REM seed -128189210 1798249407 -1861492678 1612346185 552732606 -1532357311 794808995 26713002 1035916503 -766184220 -1038776604 -457262911
REM
REM S 3|1.8|5|6|7|30:31:32(qc=5)
REM O 2|1.5|12|13|15|20:21(qc=5)
REM Li 1|1.3|8|9|10|10U:20(qc=5)
REM Fe 3|2.2|2.0|1.0|8|9|10|40:41:32(qc=5)
REM Fe d:4.0 
REM
CELL 1.54180    4.24915    6.40017    6.41657   90.00000   89.32657   90.00000
LATT -1
SFAC Li O  S  Fe 
Li     1 -0.2643760000000 -0.4322740000000  0.3973550000000 1.0  -0.07
Li     1  0.2643760000000 -0.4322740000000 -0.3973550000000 1.0  -0.07
Li     1  0.2243270000000  0.1793340000000 -0.2050630000000 1.0   0.01
Li     1 -0.2243270000000  0.1793340000000  0.2050630000000 1.0   0.01
O      2  0.0000000000000 -0.0266690000000  0.0000000000000 1.0   0.15
S      3  0.2442170000000  0.4473730000000  0.2479350000000 1.0   0.12
S      3 -0.2442170000000  0.4473730000000 -0.2479350000000 1.0   0.12
S      3 -0.5000000000000 -0.0636540000000 -0.5000000000000 1.0   0.14
Fe     4 -0.2405030000000 -0.1982260000000 -0.1932370000000 1.0   3.79
Fe     4  0.2405030000000 -0.1982260000000  0.1932370000000 1.0   3.79
END
