TITL LFSO-Li4Fe3S4O-201029-192934-dd7898 -0.0021 481.154019 -1.00788341E+004 23.9871 24.2490 24 (Cc) n - 1
REM
REM Run started: Fri, 30 Oct 2020 11:10:02 +0000 in /lustre/scratch/uccabz1/launch_tmp/launcher_2020-10-29-19-29-32-757613
REM CASTEP 20.1 from code version af48c487+ pr-geom-scf-spinfix Tue Jun 2 15:39:59 2020 +0100
REM Functional Perdew Burke Ernzerhof Relativity Koelling-Harmon Dispersion off
REM Cut-off 340.0000 eV Grid scale 1.7500 Gmax 16.5316 1/A FBSC none
REM MP grid 4 4 1 Offset 0.000 0.000 0.000 No. kpts 6 Spacing 0.07
REM Total runtime: 61323.9 s
REM Overall efficiency: 72.4167 %
REM
REM
REM
REM compiler GCC version 4.9.2
REM options -cpp -iprefix /lustre/shared/ucl/apps/gcc/4.9.2/bin/../lib/gcc/x86_64-unknown-linux-gnu/4.9.2/ -mtune=corei7 -march=x86-64 -g -Og
REM COMMAND_LINE
REM seed 585263425 -1764331515 -302183298 -1820410844 318441081 -1857505745 -652257585 -1492188661 571713393 1866507714 -460936241 -2064436459
REM
REM S 3|1.8|5|6|7|30:31:32(qc=5)
REM O 2|1.5|12|13|15|20:21(qc=5)
REM Li 1|1.3|8|9|10|10U:20(qc=5)
REM Fe 3|2.2|2.0|1.0|8|9|10|40:41:32(qc=5)
REM Fe d:4.0 
REM
CELL 1.54180    6.62823    6.62823   20.54991   96.28617   96.28617   32.44160
LATT -1
SFAC Li O  S  Fe 
Li     1  0.2744310000000 -0.3043510000000 -0.4407060000000 1.0  -0.02
Li     1  0.1956490000000 -0.2255690000000  0.0592940000000 1.0  -0.02
Li     1 -0.4444610000000  0.1235210000000  0.0037680000000 1.0  -0.00
Li     1  0.6235210000000  0.0555390000000 -0.4962320000000 1.0  -0.00
Li     1  0.0126320000000 -0.4064790000000  0.1431800000000 1.0  -0.02
Li     1  0.0935210000000  0.5126320000000 -0.3568200000000 1.0  -0.02
Li     1  0.0031530000000 -0.5636350000000 -0.5487090000000 1.0  -0.02
Li     1 -0.0636350000000 -0.4968470000000 -0.0487090000000 1.0  -0.02
O      2  0.1549660000000  0.5838970000000  0.4758980000000 1.0   0.16
O      2  0.0838970000000 -0.3450340000000 -0.0241020000000 1.0   0.16
S      3  0.0167260000000  0.3801060000000 -0.2643270000000 1.0   0.16
S      3 -0.1198940000000  0.5167260000000  0.2356730000000 1.0   0.16
S      3 -0.2925000000000  0.1256910000000 -0.3751590000000 1.0   0.09
S      3  0.6256910000000  0.2075000000000  0.1248410000000 1.0   0.09
S      3  0.1563830000000 -0.2594170000000  0.3023070000000 1.0   0.14
S      3 -0.7594170000000  0.6563830000000 -0.1976930000000 1.0   0.14
S      3  0.3519190000000 -0.0777940000000 -0.0109780000000 1.0   0.10
S      3 -0.5777940000000 -0.1480810000000  0.4890220000000 1.0   0.10
Fe     4  0.2372650000000 -0.2771810000000  0.4216800000000 1.0   3.78
Fe     4  0.2228190000000 -0.2627350000000 -0.0783200000000 1.0   3.78
Fe     4 -0.2648190000000  0.2894770000000  0.2279890000000 1.0   3.85
Fe     4 -0.2105230000000  0.2351810000000 -0.2720110000000 1.0   3.85
Fe     4  0.6249330000000 -0.0116060000000 -0.2245090000000 1.0   3.78
Fe     4  0.4883940000000  0.1249330000000  0.2754910000000 1.0   3.78
END
