TITL LFSO-Li3FeS2O-201025-073408-b755b9 -0.0489 390.183501 -7.51516651E+003 4.95140 12.6185 21 (Pmm2) n - 1
REM
REM Run started: Sun, 25 Oct 2020 14:09:06 +0000 in /lustre/scratch/uccabz1/launch_tmp/launcher_2020-10-25-07-34-12-408586
REM CASTEP 20.1 from code version af48c487+ pr-geom-scf-spinfix Tue Jun 2 15:39:59 2020 +0100
REM Functional Perdew Burke Ernzerhof Relativity Koelling-Harmon Dispersion off
REM Cut-off 340.0000 eV Grid scale 1.7500 Gmax 16.5316 1/A FBSC none
REM MP grid 3 3 2 Offset 0.000 0.000 0.000 No. kpts 4 Spacing 0.07
REM Total runtime: 24020 s
REM Overall efficiency: 77.6 %
REM
REM
REM
REM compiler GCC version 4.9.2
REM options -cpp -iprefix /lustre/shared/ucl/apps/gcc/4.9.2/bin/../lib/gcc/x86_64-unknown-linux-gnu/4.9.2/ -mtune=corei7 -march=x86-64 -g -Og
REM COMMAND_LINE
REM seed -56684950 -843899488 189537252 -301771688 1673053662 -567362244 -339301701 1000877664 -440260194 -1891641092 1410936739 1417972676
REM
REM S 3|1.8|5|6|7|30:31:32(qc=5)
REM O 2|1.5|12|13|15|20:21(qc=5)
REM Li 1|1.3|8|9|10|10U:20(qc=5)
REM Fe 3|2.2|2.0|1.0|8|9|10|40:41:32(qc=5)
REM Fe d:4.0 
REM
CELL 1.54180    5.42508    6.91129   10.40647   90.00000   90.00000   90.00000
LATT -1
SFAC Li O  S  Fe 
Li     1  0.2431580000000 -0.1562610000000 -0.3915660000000 1.0   0.05
Li     1 -0.2431580000000  0.1562610000000 -0.3915660000000 1.0   0.05
Li     1 -0.2431580000000 -0.1562610000000 -0.3915660000000 1.0   0.05
Li     1  0.2431580000000  0.1562610000000 -0.3915660000000 1.0   0.05
Li     1  0.2461760000000  0.2805070000000 -0.0199730000000 1.0  -0.01
Li     1 -0.2461760000000 -0.2805070000000 -0.0199730000000 1.0  -0.01
Li     1 -0.2461760000000  0.2805070000000 -0.0199730000000 1.0  -0.01
Li     1  0.2461760000000 -0.2805070000000 -0.0199730000000 1.0  -0.01
Li     1  0.0000000000000  0.0000000000000 -0.1615680000000 1.0  -0.00
O      2 -0.5000000000000  0.0000000000000 -0.4114860000000 1.0  -0.38
O      2 -0.5000000000000  0.0000000000000  0.3034930000000 1.0   0.84
O      2  0.0000000000000  0.0000000000000 -0.3302280000000 1.0  -0.08
S      3  0.0000000000000  0.3418040000000  0.4297690000000 1.0  -0.01
S      3  0.0000000000000 -0.3418040000000  0.4297690000000 1.0  -0.01
S      3 -0.5000000000000  0.5000000000000  0.1167590000000 1.0   0.09
S      3  0.0000000000000 -0.5000000000000 -0.1468930000000 1.0   0.03
S      3 -0.5000000000000  0.0000000000000 -0.0834920000000 1.0  -0.09
S      3  0.0000000000000  0.0000000000000  0.0805070000000 1.0  -0.09
Fe     4 -0.5000000000000  0.0000000000000  0.1417260000000 1.0   3.71
Fe     4  0.5000000000000 -0.5000000000000  0.3383200000000 1.0   3.99
Fe     4  0.0000000000000 -0.5000000000000 -0.3628670000000 1.0  -3.21
END
