TITL LFSO-Li2FeSO-201025-105640-dd37cb 0.0190 96.810014 -2.00269603E+003 4.00000 4.14598 5 (I4mm) n - 1
REM
REM Run started: Sun, 25 Oct 2020 11:33:21 +0000 in /scratch/scratch/uccabz1/launch_tmp/launcher_2020-10-25-10-56-39-172598
REM CASTEP 19.11| from code version Version unavailable
REM Functional Perdew Burke Ernzerhof Relativity Koelling-Harmon Dispersion off
REM Cut-off 340.0000 eV Grid scale 1.7500 Gmax 16.5316 1/A FBSC none
REM MP grid 4 4 3 Offset 0.000 0.000 0.000 No. kpts 16 Spacing 0.07
REM Total runtime: 2376.3 s
REM Overall efficiency: 86.4444 %
REM
REM
REM
REM compiler GCC version 4.9.2
REM options -cpp -iprefix /scratch/UCL/applications/gcc/4.9.2/bin/../lib/gcc/x86_64-unknown-linux-gnu/4.9.2/ -mtune=corei7 -march=x86-64 -g -O2
REM COMMAND_LINE
REM seed -2027023604 -1284999723 -1302573016 -1953617033 470528711 732655108 -1195625114 -1188354982 -2065437640 1333059643 -1176796652 1181049502
REM
REM S 3|1.8|5|6|7|30:31:32(qc=5)
REM O 2|1.5|12|13|15|20:21(qc=5)
REM Li 1|1.3|8|9|10|10U:20(qc=5)
REM Fe 3|2.2|2.0|1.0|8|9|10|40:41:32(qc=5)
REM Fe d:4.0 
REM
CELL 1.54180    4.00725    4.00725    6.66144  107.50447  107.50447   90.00000
LATT -1
SFAC Li O  S  Fe 
Li     1  0.2895400000000 -0.2104600000000 -0.4209200000000 1.0  -0.00
Li     1 -0.2104600000000  0.2895400000000 -0.4209200000000 1.0  -0.00
O      2 -0.1471280000000 -0.1471280000000  0.7057440000000 1.0   0.13
S      3  0.1829110000000  0.1829110000000 -0.6341790000000 1.0   0.09
Fe     4  0.0036110000000  0.0036110000000  0.0072210000000 1.0   3.79
END
