TITL LFSO-Li2Fe2S2O-201022-072816-54a47e 0.0143 243.401659 -6.33897652E+003 16.0000 16.1182 14 (P3) n - 1
REM
REM Run started: Thu, 22 Oct 2020 09:08:04 +0100 in /scratch/scratch/uccabz1/launch_tmp/launcher_2020-10-22-06-28-15-369679
REM CASTEP 19.11| from code version Version unavailable
REM Functional Perdew Burke Ernzerhof Relativity Koelling-Harmon Dispersion off
REM Cut-off 340.0000 eV Grid scale 1.7500 Gmax 16.5316 1/A FBSC none
REM MP grid 3 3 3 Offset 0.000 0.000 0.000 No. kpts 8 Spacing 0.07
REM Total runtime: 6245.78 s
REM Overall efficiency: 71.8571 %
REM
REM
REM
REM compiler GCC version 4.9.2
REM options -cpp -iprefix /scratch/UCL/applications/gcc/4.9.2/bin/../lib/gcc/x86_64-unknown-linux-gnu/4.9.2/ -mtune=corei7 -march=x86-64 -g -O2
REM COMMAND_LINE
REM seed -285380805 -584431653 353978158 867040507 -342605560 -1733780271 -1474680873 77773655 1559602848 1370593905 1493102180 -478537402
REM
REM S 3|1.8|5|6|7|30:31:32(qc=5)
REM O 2|1.5|12|13|15|20:21(qc=5)
REM Li 1|1.3|8|9|10|10U:20(qc=5)
REM Fe 3|2.2|2.0|1.0|8|9|10|40:41:32(qc=5)
REM Fe d:4.0 
REM
CELL 1.54180    6.70174    6.70174    6.25775   90.00000   90.00000  120.00000
LATT -1
SFAC Li O  S  Fe 
Li     1 -0.2504530000000 -0.2493830000000 -0.0737100000000 1.0  -0.04
Li     1  0.0010700000000  0.2504530000000 -0.0737100000000 1.0  -0.04
Li     1  0.2493830000000 -0.0010700000000 -0.0737100000000 1.0  -0.04
Li     1 -0.3333330000000  0.3333330000000 -0.3731210000000 1.0  -0.02
O      2  0.3333330000000 -0.3333330000000  0.3171710000000 1.0   0.09
O      2 -0.3333330000000  0.3333330000000  0.3152710000000 1.0   0.11
S      3 -0.0040910000000 -0.3926720000000 -0.1633740000000 1.0   0.10
S      3 -0.3885820000000  0.0040910000000 -0.1633740000000 1.0   0.10
S      3  0.3926720000000  0.3885820000000 -0.1633740000000 1.0   0.10
S      3 -0.0000000000000  0.0000000000000  0.2461980000000 1.0   0.04
Fe     4 -0.0030190000000 -0.4074270000000  0.2356630000000 1.0   3.92
Fe     4 -0.4044080000000  0.0030190000000  0.2356630000000 1.0   3.92
Fe     4  0.4074270000000  0.4044080000000  0.2356630000000 1.0   3.92
Fe     4  0.3333330000000 -0.3333330000000 -0.3399060000000 1.0   3.84
END
