TITL LFSO-Li4Fe2S3O-201026-234141-e0cceb -0.0048 177.777574 -3.87412300E+003 8.00000 8.14023 10 (C2) n - 1
REM
REM Run started: Tue, 27 Oct 2020 01:37:39 +0000 in /scratch/scratch/uccabz1/launch_tmp/launcher_2020-10-26-23-41-40-344206
REM CASTEP 19.11| from code version Version unavailable
REM Functional Perdew Burke Ernzerhof Relativity Koelling-Harmon Dispersion off
REM Cut-off 340.0000 eV Grid scale 1.7500 Gmax 16.5316 1/A FBSC none
REM MP grid 3 3 3 Offset 0.000 0.000 0.000 No. kpts 10 Spacing 0.07
REM Total runtime: 7530 s
REM Overall efficiency: 81.4615 %
REM
REM
REM
REM compiler GCC version 4.9.2
REM options -cpp -iprefix /scratch/UCL/applications/gcc/4.9.2/bin/../lib/gcc/x86_64-unknown-linux-gnu/4.9.2/ -mtune=corei7 -march=x86-64 -g -O2
REM COMMAND_LINE
REM seed -1660761742 676786204 249246365 -874597776 1433103135 -2085306346 -244361615 822135454 -824253442 1950457720 -604192800 2112412645
REM
REM S 3|1.8|5|6|7|30:31:32(qc=5)
REM O 2|1.5|12|13|15|20:21(qc=5)
REM Li 1|1.3|8|9|10|10U:20(qc=5)
REM Fe 3|2.2|2.0|1.0|8|9|10|40:41:32(qc=5)
REM Fe d:4.0 
REM
CELL 1.54180    5.63340    6.35022    6.60153  118.74853  116.70651   90.00000
LATT -1
SFAC Li O  S  Fe 
Li     1 -0.1022790000000  0.0603170000000  0.3075960000000 1.0  -0.03
Li     1  0.1022790000000 -0.2472790000000 -0.3075960000000 1.0  -0.03
Li     1  0.2448930000000  0.4914820000000 -0.0226940000000 1.0  -0.00
Li     1 -0.2448930000000  0.5141760000000  0.0226940000000 1.0  -0.00
O      2  0.0000000000000 -0.2524860000000  0.0000000000000 1.0   0.15
S      3 -0.3138410000000 -0.1858410000000  0.4088890000000 1.0   0.05
S      3  0.3138410000000  0.4052710000000 -0.4088890000000 1.0   0.05
S      3 -0.5000000000000  0.1163980000000  0.0000000000000 1.0   0.06
Fe     4 -0.6436320000000  0.0316800000000  0.2625200000000 1.0   3.88
Fe     4  0.6436320000000 -0.2308400000000 -0.2625200000000 1.0   3.88
END
