TITL LFSO-Li2FeSO-201024-211100-abfba7 -0.0189 143.499258 -4.00749993E+003 8.00000 8.07918 10 (P21212) n - 1
REM
REM Run started: Sat, 24 Oct 2020 21:46:18 +0100 in /scratch/scratch/uccabz1/launch_tmp/launcher_2020-10-24-20-10-58-912626
REM CASTEP 19.11| from code version Version unavailable
REM Functional Perdew Burke Ernzerhof Relativity Koelling-Harmon Dispersion off
REM Cut-off 340.0000 eV Grid scale 1.7500 Gmax 16.5316 1/A FBSC none
REM MP grid 5 3 3 Offset 0.000 0.000 0.000 No. kpts 12 Spacing 0.07
REM Total runtime: 2332.05 s
REM Overall efficiency: 93.5 %
REM
REM
REM
REM compiler GCC version 4.9.2
REM options -cpp -iprefix /scratch/UCL/applications/gcc/4.9.2/bin/../lib/gcc/x86_64-unknown-linux-gnu/4.9.2/ -mtune=corei7 -march=x86-64 -g -O2
REM COMMAND_LINE
REM seed -217370416 670229389 1158513380 559529920 -271243183 162209427 -1095803301 -1136323449 240210823 -1361374181 2067741473 -1317524385
REM
REM S 3|1.8|5|6|7|30:31:32(qc=5)
REM O 2|1.5|12|13|15|20:21(qc=5)
REM Li 1|1.3|8|9|10|10U:20(qc=5)
REM Fe 3|2.2|2.0|1.0|8|9|10|40:41:32(qc=5)
REM Fe d:4.0 
REM
CELL 1.54180    3.45001    6.19962    6.70910   90.00000   90.00000   90.00000
LATT -1
SFAC Li O  S  Fe 
Li     1  0.4797000000000  0.2833290000000 -0.3427090000000 1.0  -0.02
Li     1 -0.4797000000000 -0.2833290000000 -0.3427090000000 1.0  -0.02
Li     1 -0.0203000000000  0.2166710000000  0.3427090000000 1.0  -0.02
Li     1  0.0203000000000 -0.2166710000000  0.3427090000000 1.0  -0.02
O      2 -0.0000000000000  0.0000000000000  0.1523500000000 1.0   0.12
O      2  0.5000000000000  0.5000000000000 -0.1523500000000 1.0   0.12
S      3 -0.0000000000000  0.0000000000000 -0.3170560000000 1.0   0.07
S      3  0.5000000000000  0.5000000000000  0.3170560000000 1.0   0.07
Fe     4  0.5000000000000  0.0000000000000  0.0066810000000 1.0   3.85
Fe     4 -0.0000000000000  0.5000000000000 -0.0066810000000 1.0   3.85
END
