TITL LFSO-Li2Fe3S2O2-201022-154405-8ee8a3 -0.0375 188.567701 -4.46742669E+003 12.0000 12.3161 9 (R-3m) n - 1
REM
REM Run started: Thu, 22 Oct 2020 17:04:04 +0100 in /lustre/scratch/uccabz1/launch_tmp/launcher_2020-10-22-14-44-04-256258
REM CASTEP 20.1 from code version af48c487+ pr-geom-scf-spinfix Tue Jun 2 15:39:59 2020 +0100
REM Functional Perdew Burke Ernzerhof Relativity Koelling-Harmon Dispersion off
REM Cut-off 340.0000 eV Grid scale 1.7500 Gmax 16.5316 1/A FBSC none
REM MP grid 3 3 3 Offset 0.000 0.000 0.000 No. kpts 6 Spacing 0.07
REM Total runtime: 5254.28 s
REM Overall efficiency: 95.7143 %
REM
REM
REM
REM compiler GCC version 4.9.2
REM options -cpp -iprefix /lustre/shared/ucl/apps/gcc/4.9.2/bin/../lib/gcc/x86_64-unknown-linux-gnu/4.9.2/ -mtune=corei7 -march=x86-64 -g -Og
REM COMMAND_LINE
REM seed 297073625 -963957378 2115334284 -1140059824 1150255191 -689873168 -1856573892 1066326191 -1430567326 526166328 -1001168535 539334212
REM
REM S 3|1.8|5|6|7|30:31:32(qc=5)
REM O 2|1.5|12|13|15|20:21(qc=5)
REM Li 1|1.3|8|9|10|10U:20(qc=5)
REM Fe 3|2.2|2.0|1.0|8|9|10|40:41:32(qc=5)
REM Fe d:4.0 
REM
CELL 1.54180    5.76928    5.76928    7.34094   66.86168   66.86168   60.00000
LATT -1
SFAC Li O  S  Fe 
Li     1  0.1254800000000  0.1254800000000 -0.3764410000000 1.0  -0.02
Li     1 -0.1097950000000 -0.1097950000000  0.3293860000000 1.0  -0.02
O      2 -0.3788310000000 -0.3788310000000  1.1364920000000 1.0   0.26
O      2  0.3933280000000  0.3933280000000 -1.1799830000000 1.0   0.25
S      3 -0.2295100000000 -0.2295100000000  0.6885300000000 1.0   0.31
S      3  0.2442310000000  0.2442310000000 -0.7326940000000 1.0   0.31
Fe     4  0.0071450000000 -0.4922680000000 -0.0223660000000 1.0   3.64
Fe     4 -0.4922680000000  0.5074890000000 -0.0223660000000 1.0   3.64
Fe     4  0.5074890000000  0.0071450000000 -0.0223660000000 1.0   3.64
END
