TITL LFSO-Li6FeSO3-201028-082944-7b0fd2 0.0347 312.764724 -7.35339314E+003 7.99997 8.50128 22 (R3m) n - 1
REM
REM Run started: Wed, 28 Oct 2020 17:10:09 +0000 in /lustre/scratch/uccabz1/launch_tmp/launcher_2020-10-28-08-29-42-347259
REM CASTEP 20.1 from code version af48c487+ pr-geom-scf-spinfix Tue Jun 2 15:39:59 2020 +0100
REM Functional Perdew Burke Ernzerhof Relativity Koelling-Harmon Dispersion off
REM Cut-off 340.0000 eV Grid scale 1.7500 Gmax 16.5316 1/A FBSC none
REM MP grid 3 3 2 Offset 0.000 0.000 0.000 No. kpts 7 Spacing 0.07
REM Total runtime: 34140.1 s
REM Overall efficiency: 97.4615 %
REM
REM
REM
REM compiler GCC version 4.9.2
REM options -cpp -iprefix /lustre/shared/ucl/apps/gcc/4.9.2/bin/../lib/gcc/x86_64-unknown-linux-gnu/4.9.2/ -mtune=corei7 -march=x86-64 -g -Og
REM COMMAND_LINE
REM seed 873771558 342131138 -579665162 231913510 389823209 -404818574 829136450 -1857575979 1399830628 2031114907 1307739635 -214454116
REM
REM S 3|1.8|5|6|7|30:31:32(qc=5)
REM O 2|1.5|12|13|15|20:21(qc=5)
REM Li 1|1.3|8|9|10|10U:20(qc=5)
REM Fe 3|2.2|2.0|1.0|8|9|10|40:41:32(qc=5)
REM Fe d:4.0 
REM
CELL 1.54180    6.77931    6.77931    8.77890   67.28704   67.28704   60.00000
LATT -1
SFAC Li O  S  Fe 
Li     1 -0.0836380000000  0.3596150000000  0.3647220000000 1.0  -0.02
Li     1 -0.6407000000000 -0.0836380000000  0.3647220000000 1.0  -0.02
Li     1  0.3596150000000 -0.6407000000000  0.3647220000000 1.0  -0.02
Li     1  0.6337850000000  0.2553590000000 -0.1443130000000 1.0  -0.03
Li     1  0.2551690000000  0.6337850000000 -0.1443130000000 1.0  -0.03
Li     1  0.2553590000000  0.2551690000000 -0.1443130000000 1.0  -0.03
Li     1  0.6523090000000  0.0884370000000 -0.3916170000000 1.0  -0.07
Li     1 -0.3491290000000  0.6523090000000 -0.3916170000000 1.0  -0.07
Li     1  0.0884370000000 -0.3491290000000 -0.3916170000000 1.0  -0.07
Li     1 -0.1805880000000  0.4461980000000 -0.0851820000000 1.0  -0.05
Li     1 -0.1804290000000 -0.1805880000000 -0.0851820000000 1.0  -0.05
Li     1  0.4461980000000 -0.1804290000000 -0.0851820000000 1.0  -0.05
O      2 -0.4758500000000  0.0133620000000  0.4488440000000 1.0   0.10
O      2  0.0136440000000 -0.4758500000000  0.4488440000000 1.0   0.10
O      2  0.0133620000000  0.0136440000000  0.4488440000000 1.0   0.10
O      2 -0.4461180000000 -0.4458430000000 -0.1534450000000 1.0   0.02
O      2  0.0454050000000 -0.4461180000000 -0.1534450000000 1.0   0.02
O      2 -0.4458430000000  0.0454050000000 -0.1534450000000 1.0   0.02
S      3  0.5016470000000  0.5016470000000 -0.5049410000000 1.0   0.01
S      3 -0.4071610000000 -0.4071610000000  0.2214820000000 1.0   0.01
Fe     4  0.1231610000000  0.1231610000000  0.6305170000000 1.0   4.27
Fe     4 -0.1225650000000 -0.1225650000000 -0.6323040000000 1.0   3.84
END
