TITL LFSO-Li6FeS3O-201027-110601-045027 -0.0057 426.118756 -6.81869251E+003 7.90481 8.11228 22 (P21/m) n - 1
REM
REM Run started: Tue, 27 Oct 2020 15:23:06 +0000 in /lustre/scratch/uccabz1/launch_tmp/launcher_2020-10-27-11-05-59-432171
REM CASTEP 20.1 from code version af48c487+ pr-geom-scf-spinfix Tue Jun 2 15:39:59 2020 +0100
REM Functional Perdew Burke Ernzerhof Relativity Koelling-Harmon Dispersion off
REM Cut-off 340.0000 eV Grid scale 1.7500 Gmax 16.5316 1/A FBSC none
REM MP grid 2 2 2 Offset 0.000 0.000 0.000 No. kpts 2 Spacing 0.07
REM Total runtime: 15531.6 s
REM Overall efficiency: 80 %
REM
REM
REM
REM compiler GCC version 4.9.2
REM options -cpp -iprefix /lustre/shared/ucl/apps/gcc/4.9.2/bin/../lib/gcc/x86_64-unknown-linux-gnu/4.9.2/ -mtune=corei7 -march=x86-64 -g -Og
REM COMMAND_LINE
REM seed 1011822606 1200459048 -1265918474 1748544579 -1698436579 1760469025 -677438842 1851434652 -555636962 -847244785 -612838622 1170243639
REM
REM S 3|1.8|5|6|7|30:31:32(qc=5)
REM O 2|1.5|12|13|15|20:21(qc=5)
REM Li 1|1.3|8|9|10|10U:20(qc=5)
REM Fe 3|2.2|2.0|1.0|8|9|10|40:41:32(qc=5)
REM Fe d:4.0 
REM
CELL 1.54180    7.41586    7.91880    7.29226   90.00000   84.30075   90.00000
LATT -1
SFAC Li O  S  Fe 
Li     1 -0.2615580000000 -0.4787050000000 -0.3661120000000 1.0  -0.03
Li     1  0.2615580000000  0.0212950000000  0.3661120000000 1.0  -0.03
Li     1  0.2615580000000  0.4787050000000  0.3661120000000 1.0  -0.03
Li     1 -0.2615580000000 -0.0212950000000 -0.3661120000000 1.0  -0.03
Li     1 -0.4875670000000 -0.0950970000000  0.1383270000000 1.0   0.01
Li     1  0.4875670000000  0.4049030000000 -0.1383270000000 1.0   0.01
Li     1  0.4875670000000  0.0950970000000 -0.1383270000000 1.0   0.01
Li     1 -0.4875670000000 -0.4049030000000  0.1383270000000 1.0   0.01
Li     1 -0.0613500000000  0.0105830000000  0.1858500000000 1.0  -0.04
Li     1  0.0613500000000  0.5105830000000 -0.1858500000000 1.0  -0.04
Li     1  0.0613500000000 -0.0105830000000 -0.1858500000000 1.0  -0.04
Li     1 -0.0613500000000 -0.5105830000000  0.1858500000000 1.0  -0.04
O      2 -0.0000000000000  0.0000000000000  0.5000000000000 1.0   0.11
O      2 -0.0000000000000  0.5000000000000  0.5000000000000 1.0   0.11
S      3  0.2419230000000  0.0167970000000  0.0532160000000 1.0   0.02
S      3 -0.2419230000000 -0.4832030000000 -0.0532160000000 1.0   0.02
S      3 -0.2419230000000 -0.0167970000000 -0.0532160000000 1.0   0.02
S      3  0.2419230000000  0.4832030000000  0.0532160000000 1.0   0.02
S      3  0.6000000000000  0.2500000000000 -0.4470280000000 1.0   0.12
S      3 -0.6000000000000 -0.2500000000000  0.4470280000000 1.0   0.12
Fe     4 -0.0742670000000  0.2500000000000 -0.4949090000000 1.0   3.79
Fe     4  0.0742670000000 -0.2500000000000  0.4949090000000 1.0   3.79
END
