TITL LFSO-Li4Fe2S3O-201026-225927-c6348b -0.0404 320.299635 -7.74808856E+003 16.0000 16.2205 20 (P3) n - 1
REM
REM Run started: Wed, 28 Oct 2020 05:54:27 +0000 in /scratch/scratch/uccabz1/launch_tmp/launcher_2020-10-27-23-59-53-809032
REM CASTEP 19.11| from code version Version unavailable
REM Functional Perdew Burke Ernzerhof Relativity Koelling-Harmon Dispersion off
REM Cut-off 340.0000 eV Grid scale 1.7500 Gmax 16.5316 1/A FBSC none
REM MP grid 3 3 3 Offset 0.000 0.000 0.000 No. kpts 8 Spacing 0.07
REM Total runtime: 23748.4 s
REM Overall efficiency: 97.875 %
REM
REM
REM
REM compiler GCC version 4.9.2
REM options -cpp -iprefix /lustre/shared/ucl/apps/gcc/4.9.2/bin/../lib/gcc/x86_64-unknown-linux-gnu/4.9.2/ -mtune=corei7 -march=x86-64 -g -Og
REM COMMAND_LINE
REM seed -552440165 -370108541 -1857473880 -427077655 1329307907 -1483444607 686235397 -766824843 2136115158 -1946325386 -2090801568 -315943122
REM
REM S 3|1.8|5|6|7|30:31:32(qc=5)
REM O 2|1.5|12|13|15|20:21(qc=5)
REM Li 1|1.3|8|9|10|10U:20(qc=5)
REM Fe 3|2.2|2.0|1.0|8|9|10|40:41:32(qc=5)
REM Fe d:4.0 
REM
CELL 1.54180    6.13260    7.76588    7.76588  120.00000   90.00000   90.00000
LATT -1
SFAC Li O  S  Fe 
Li     1 -0.3498500000000  0.2034770000000  0.4010710000000 1.0  -0.01
Li     1 -0.3498500000000  0.1975930000000 -0.2034770000000 1.0  -0.01
Li     1 -0.3498500000000 -0.4010710000000 -0.1975930000000 1.0  -0.01
Li     1 -0.0491680000000 -0.2159260000000 -0.3941890000000 1.0  -0.01
Li     1 -0.0491680000000 -0.1782630000000  0.2159260000000 1.0  -0.01
Li     1 -0.0491680000000  0.3941890000000  0.1782630000000 1.0  -0.01
Li     1 -0.3228080000000 -0.3333330000000  0.3333330000000 1.0   0.04
Li     1  0.2764640000000 -0.3333330000000  0.3333330000000 1.0  -0.12
O      2 -0.0221660000000 -0.3333330000000  0.3333330000000 1.0   0.05
O      2  0.4958120000000  0.3333330000000 -0.3333330000000 1.0   0.14
S      3  0.0359850000000 -0.3353120000000 -0.1403390000000 1.0   0.10
S      3  0.0359850000000  0.1949720000000  0.3353120000000 1.0   0.10
S      3  0.0359850000000  0.1403390000000 -0.1949720000000 1.0   0.10
S      3  0.4839360000000  0.3459730000000  0.1273720000000 1.0   0.08
S      3  0.4839360000000 -0.2186010000000 -0.3459730000000 1.0   0.08
S      3  0.4839360000000 -0.1273720000000  0.2186010000000 1.0   0.08
Fe     4  0.2653440000000  0.4381560000000 -0.0843850000000 1.0   3.84
Fe     4  0.2653440000000  0.4774590000000 -0.4381560000000 1.0   3.84
Fe     4  0.2653440000000  0.0843850000000 -0.4774590000000 1.0   3.84
Fe     4  0.2779590000000  0.0000000000000 -0.0000000000000 1.0   3.88
END
