TITL LFSO-Li2FeSO-201024-194506-5a6644 0.0043 246.415624 -6.01277773E+003 12.0000 12.1092 15 (P-6) n - 1
REM
REM Run started: Sat, 24 Oct 2020 21:46:40 +0100 in /scratch/scratch/uccabz1/launch_tmp/launcher_2020-10-24-18-45-04-966832
REM CASTEP 19.11| from code version Version unavailable
REM Functional Perdew Burke Ernzerhof Relativity Koelling-Harmon Dispersion off
REM Cut-off 340.0000 eV Grid scale 1.7500 Gmax 16.5316 1/A FBSC none
REM MP grid 4 2 2 Offset 0.000 0.000 0.000 No. kpts 8 Spacing 0.07
REM Total runtime: 8093.82 s
REM Overall efficiency: 87.1429 %
REM
REM
REM
REM compiler GCC version 4.9.2
REM options -cpp -iprefix /scratch/UCL/applications/gcc/4.9.2/bin/../lib/gcc/x86_64-unknown-linux-gnu/4.9.2/ -mtune=corei7 -march=x86-64 -g -O2
REM COMMAND_LINE
REM seed 687813412 1133353597 -1971876366 -1399137777 -932188980 -767685080 735897170 -721055443 1105872085 -167760977 -573819971 -1509022799
REM
REM S 3|1.8|5|6|7|30:31:32(qc=5)
REM O 2|1.5|12|13|15|20:21(qc=5)
REM Li 1|1.3|8|9|10|10U:20(qc=5)
REM Fe 3|2.2|2.0|1.0|8|9|10|40:41:32(qc=5)
REM Fe d:4.0 
REM
CELL 1.54180    3.84486    8.60258    8.60258  120.00000   90.00000   90.00000
LATT -1
SFAC Li O  S  Fe 
Li     1 -0.3753330000000 -0.4144150000000 -0.1469270000000 1.0   0.00
Li     1 -0.3753330000000  0.1469270000000 -0.2674880000000 1.0   0.00
Li     1 -0.3753330000000  0.2674880000000  0.4144150000000 1.0   0.00
Li     1  0.1249550000000  0.2965080000000  0.2274860000000 1.0  -0.04
Li     1  0.1249550000000 -0.2274860000000  0.0690220000000 1.0  -0.04
Li     1  0.1249550000000 -0.0690220000000 -0.2965080000000 1.0  -0.04
O      2 -0.3774390000000  0.4129950000000  0.3116920000000 1.0   0.12
O      2 -0.3774390000000 -0.3116920000000  0.1013030000000 1.0   0.12
O      2 -0.3774390000000 -0.1013030000000 -0.4129950000000 1.0   0.12
S      3  0.1245310000000  0.2739950000000 -0.0773850000000 1.0   0.07
S      3  0.1245310000000  0.0773850000000  0.3513800000000 1.0   0.07
S      3  0.1245310000000 -0.3513800000000 -0.2739950000000 1.0   0.07
Fe     4 -0.3751280000000  0.4579570000000  0.1045930000000 1.0   3.84
Fe     4 -0.3751280000000 -0.1045930000000  0.3533640000000 1.0   3.84
Fe     4 -0.3751280000000 -0.3533640000000 -0.4579570000000 1.0   3.84
END
