TITL LFSO-LiFe3S4O-201028-164641-77a410 0.0228 366.732646 -8.87497157E+003 23.9874 24.1963 18 (P3) n - 1
REM
REM Run started: Wed, 28 Oct 2020 23:39:16 +0000 in /scratch/scratch/uccabz1/launch_tmp/launcher_2020-10-28-16-46-40-235789
REM CASTEP 19.11| from code version Version unavailable
REM Functional Perdew Burke Ernzerhof Relativity Koelling-Harmon Dispersion off
REM Cut-off 340.0000 eV Grid scale 1.7500 Gmax 16.5316 1/A FBSC none
REM MP grid 3 3 3 Offset 0.000 0.000 0.000 No. kpts 8 Spacing 0.07
REM Total runtime: 25311.3 s
REM Overall efficiency: 76.25 %
REM
REM
REM
REM compiler GCC version 4.9.2
REM options -cpp -iprefix /scratch/UCL/applications/gcc/4.9.2/bin/../lib/gcc/x86_64-unknown-linux-gnu/4.9.2/ -mtune=corei7 -march=x86-64 -g -O2
REM COMMAND_LINE
REM seed 810657763 2059916135 -1691549958 -1325432803 -38610628 2113185242 -1531040286 226518990 -868663163 -1318975947 394470311 -659379746
REM
REM S 3|1.8|5|6|7|30:31:32(qc=5)
REM O 2|1.5|12|13|15|20:21(qc=5)
REM Li 1|1.3|8|9|10|10U:20(qc=5)
REM Fe 3|2.2|2.0|1.0|8|9|10|40:41:32(qc=5)
REM Fe d:4.0 
REM
CELL 1.54180    7.77298    7.77298    7.00881   90.00000   90.00000  120.00000
LATT -1
SFAC Li O  S  Fe 
Li     1  0.0000000000000 -0.0000000000000 -0.3361090000000 1.0   0.01
Li     1 -0.3333330000000  0.3333330000000  0.6172160000000 1.0  -0.02
O      2  0.3333330000000 -0.3333330000000 -0.7251830000000 1.0   0.06
O      2  0.3333330000000 -0.3333330000000 -0.1704750000000 1.0   0.20
S      3 -0.3969320000000 -0.2297710000000  0.2269340000000 1.0   0.13
S      3  0.1671610000000  0.3969320000000  0.2269340000000 1.0   0.13
S      3  0.2297710000000 -0.1671610000000  0.2269340000000 1.0   0.13
S      3 -0.2120570000000  0.1329090000000 -0.1976250000000 1.0   0.13
S      3  0.3449660000000  0.2120570000000 -0.1976250000000 1.0   0.13
S      3 -0.1329090000000 -0.3449660000000 -0.1976250000000 1.0   0.13
S      3  0.0000000000000 -0.0000000000000 -0.7168330000000 1.0  -0.03
S      3 -0.3333330000000  0.3333330000000  0.2745150000000 1.0   0.09
Fe     4 -0.5870740000000 -0.0559050000000 -0.1207390000000 1.0   3.86
Fe     4 -0.4688310000000  0.5870740000000 -0.1207390000000 1.0   3.86
Fe     4  0.0559050000000  0.4688310000000 -0.1207390000000 1.0   3.86
Fe     4 -0.2305070000000  0.1094900000000  0.1449220000000 1.0   3.77
Fe     4  0.3399970000000  0.2305070000000  0.1449220000000 1.0   3.77
Fe     4 -0.1094900000000 -0.3399970000000  0.1449220000000 1.0   3.77
END
