TITL LFSO-Li6FeS3O-201027-183414-6a339d -0.0246 254.150382 -3.41041168E+003 -4.00000 4.09018 11 (P2) n - 1
REM
REM Run started: Tue, 27 Oct 2020 20:07:24 +0000 in /lustre/scratch/uccabz1/launch_tmp/launcher_2020-10-27-18-34-12-550302
REM CASTEP 20.1 from code version af48c487+ pr-geom-scf-spinfix Tue Jun 2 15:39:59 2020 +0100
REM Functional Perdew Burke Ernzerhof Relativity Koelling-Harmon Dispersion off
REM Cut-off 340.0000 eV Grid scale 1.7500 Gmax 16.5316 1/A FBSC none
REM MP grid 3 4 2 Offset 0.000 0.000 0.000 No. kpts 8 Spacing 0.07
REM Total runtime: 5801.31 s
REM Overall efficiency: 80.2727 %
REM
REM
REM
REM compiler GCC version 4.9.2
REM options -cpp -iprefix /lustre/shared/ucl/apps/gcc/4.9.2/bin/../lib/gcc/x86_64-unknown-linux-gnu/4.9.2/ -mtune=corei7 -march=x86-64 -g -Og
REM COMMAND_LINE
REM seed 1797077252 -1595543818 -167250067 1655673032 1413211433 1051566105 -1602532083 -1536061168 144269175 -468574765 -28641658 -1594268632
REM
REM S 3|1.8|5|6|7|30:31:32(qc=5)
REM O 2|1.5|12|13|15|20:21(qc=5)
REM Li 1|1.3|8|9|10|10U:20(qc=5)
REM Fe 3|2.2|2.0|1.0|8|9|10|40:41:32(qc=5)
REM Fe d:4.0 
REM
CELL 1.54180    6.33209    3.95953   10.81481  110.39611   90.00000   90.00000
LATT -1
SFAC Li O  S  Fe 
Li     1  0.3679400000000  0.0049010000000 -0.2161220000000 1.0   0.05
Li     1  0.3679400000000 -0.0049010000000  0.2161220000000 1.0   0.05
Li     1  0.0981050000000  0.3327950000000  0.1059620000000 1.0  -0.02
Li     1  0.0981050000000 -0.3327950000000 -0.1059620000000 1.0  -0.02
Li     1  0.1355490000000  0.1820650000000  0.4272750000000 1.0   0.00
Li     1  0.1355490000000 -0.1820650000000 -0.4272750000000 1.0   0.00
O      2 -0.6981130000000  0.0000000000000  0.0000000000000 1.0  -0.17
S      3  0.2148840000000  0.4106300000000 -0.3261040000000 1.0  -0.00
S      3  0.2148840000000 -0.4106300000000  0.3261040000000 1.0  -0.00
S      3 -0.2073490000000  0.5000000000000  0.0000000000000 1.0  -0.09
Fe     4 -0.4028210000000  0.0000000000000  0.0000000000000 1.0  -3.80
END
