TITL LFSO-LiFe3S4O-201028-133012-e6c9e6 0.0649 383.915345 -8.87694877E+003 23.9999 24.2948 18 (P3) n - 1
REM
REM Run started: Wed, 28 Oct 2020 23:55:43 +0000 in /lustre/scratch/uccabz1/launch_tmp/launcher_2020-10-28-23-23-37-898078
REM CASTEP 20.1 from code version af48c487+ pr-geom-scf-spinfix Tue Jun 2 15:39:59 2020 +0100
REM Functional Perdew Burke Ernzerhof Relativity Koelling-Harmon Dispersion off
REM Cut-off 340.0000 eV Grid scale 1.7500 Gmax 16.5316 1/A FBSC none
REM MP grid 3 3 2 Offset 0.000 0.000 0.000 No. kpts 5 Spacing 0.07
REM Total runtime: 23777.2 s
REM Overall efficiency: 77.9 %
REM
REM
REM
REM compiler GCC version 4.9.2
REM options -cpp -iprefix /lustre/shared/ucl/apps/gcc/4.9.2/bin/../lib/gcc/x86_64-unknown-linux-gnu/4.9.2/ -mtune=corei7 -march=x86-64 -g -Og
REM COMMAND_LINE
REM seed 1739356041 -809831100 -1357039643 1266193483 -164995490 -486832285 -483939328 -2119276617 -93510120 -683402162 -1461069528 -2029047004
REM
REM S 3|1.8|5|6|7|30:31:32(qc=5)
REM O 2|1.5|12|13|15|20:21(qc=5)
REM Li 1|1.3|8|9|10|10U:20(qc=5)
REM Fe 3|2.2|2.0|1.0|8|9|10|40:41:32(qc=5)
REM Fe d:4.0 
REM
CELL 1.54180    6.81991    6.81991    9.53120   90.00000   90.00000  120.00000
LATT -1
SFAC Li O  S  Fe 
Li     1 -0.3333330000000  0.3333330000000 -0.1678040000000 1.0  -0.02
Li     1  0.3333340000000 -0.3333340000000 -0.5107190000000 1.0  -0.03
O      2  0.3333340000000 -0.3333340000000  0.2736230000000 1.0   0.10
O      2  0.0000000000000 -0.0000000000000  0.2269900000000 1.0   0.21
S      3  0.3543990000000  0.2957620000000 -0.0104650000000 1.0   0.19
S      3 -0.2957620000000  0.0586370000000 -0.0104650000000 1.0   0.19
S      3 -0.0586370000000 -0.3543990000000 -0.0104650000000 1.0   0.19
S      3 -0.0968550000000 -0.3558170000000 -0.5248510000000 1.0   0.08
S      3  0.3558170000000  0.2589610000000 -0.5248510000000 1.0   0.08
S      3 -0.2589610000000  0.0968550000000 -0.5248510000000 1.0   0.08
S      3 -0.3333330000000  0.3333330000000  0.3933920000000 1.0  -0.01
S      3  0.3333340000000 -0.3333340000000 -0.2483900000000 1.0   0.23
Fe     4  0.1200980000000 -0.2062350000000  0.2483770000000 1.0   3.80
Fe     4  0.2062350000000  0.3263330000000  0.2483770000000 1.0   3.80
Fe     4 -0.3263330000000 -0.1200980000000  0.2483770000000 1.0   3.80
Fe     4  0.0707450000000  0.3763400000000 -0.0886580000000 1.0   3.77
Fe     4 -0.3763400000000 -0.3055960000000 -0.0886580000000 1.0   3.77
Fe     4  0.3055960000000 -0.0707450000000 -0.0886580000000 1.0   3.77
END
