TITL LFSO-Li6FeSO3-201028-063845-fc4d95 -0.0408 164.091974 -3.67951266E+003 4.00000 4.11891 11 (P2) n - 1
REM
REM Run started: Wed, 28 Oct 2020 07:48:41 +0000 in /scratch/scratch/uccabz1/launch_tmp/launcher_2020-10-28-06-38-43-440513
REM CASTEP 19.11| from code version Version unavailable
REM Functional Perdew Burke Ernzerhof Relativity Koelling-Harmon Dispersion off
REM Cut-off 340.0000 eV Grid scale 1.7500 Gmax 16.5316 1/A FBSC none
REM MP grid 7 3 2 Offset 0.000 0.000 0.000 No. kpts 11 Spacing 0.07
REM Total runtime: 4765 s
REM Overall efficiency: 75.3077 %
REM
REM
REM
REM compiler GCC version 4.9.2
REM options -cpp -iprefix /scratch/UCL/applications/gcc/4.9.2/bin/../lib/gcc/x86_64-unknown-linux-gnu/4.9.2/ -mtune=corei7 -march=x86-64 -g -O2
REM COMMAND_LINE
REM seed -1106212051 279707562 431949424 1200313051 -554548502 1403930145 1908617209 1533768672 1090000359 -486518800 968430713 891653795
REM
REM S 3|1.8|5|6|7|30:31:32(qc=5)
REM O 2|1.5|12|13|15|20:21(qc=5)
REM Li 1|1.3|8|9|10|10U:20(qc=5)
REM Fe 3|2.2|2.0|1.0|8|9|10|40:41:32(qc=5)
REM Fe d:4.0 
REM
CELL 1.54180    3.97036   10.90663    7.28606   90.00000   90.00000  148.66208
LATT -1
SFAC Li O  S  Fe 
Li     1  0.1123660000000  0.2654340000000 -0.3119810000000 1.0  -0.01
Li     1 -0.1123660000000 -0.2654340000000 -0.3119810000000 1.0  -0.01
Li     1 -0.2569950000000  0.2888670000000 -0.0609040000000 1.0   0.00
Li     1  0.2569950000000 -0.2888670000000 -0.0609040000000 1.0   0.00
Li     1  0.4526190000000  0.3760830000000  0.2085510000000 1.0  -0.02
Li     1 -0.4526190000000 -0.3760830000000  0.2085510000000 1.0  -0.02
O      2  0.2680220000000 -0.2877790000000  0.2035090000000 1.0   0.12
O      2 -0.2680220000000  0.2877790000000  0.2035090000000 1.0   0.12
O      2 -0.5000000000000  0.5000000000000 -0.1695850000000 1.0   0.01
S      3  0.0000000000000  0.0000000000000 -0.3371380000000 1.0   0.05
Fe     4  0.0000000000000  0.0000000000000  0.3341170000000 1.0   3.76
END
