TITL LFSO-Li5FeSO3-201026-053340-a11f74 -0.0240 161.838374 -3.47855937E+003 4.99983 5.02315 10 (Pm) n - 1
REM
REM Run started: Mon, 26 Oct 2020 05:55:04 +0000 in /lustre/scratch/uccabz1/launch_tmp/launcher_2020-10-26-05-33-38-439938
REM CASTEP 20.1 from code version af48c487+ pr-geom-scf-spinfix Tue Jun 2 15:39:59 2020 +0100
REM Functional Perdew Burke Ernzerhof Relativity Koelling-Harmon Dispersion off
REM Cut-off 340.0000 eV Grid scale 1.7500 Gmax 16.5316 1/A FBSC none
REM MP grid 4 3 3 Offset 0.000 0.000 0.000 No. kpts 12 Spacing 0.07
REM Total runtime: 1443.32 s
REM Overall efficiency: 75.8571 %
REM
REM
REM
REM compiler GCC version 4.9.2
REM options -cpp -iprefix /lustre/shared/ucl/apps/gcc/4.9.2/bin/../lib/gcc/x86_64-unknown-linux-gnu/4.9.2/ -mtune=corei7 -march=x86-64 -g -Og
REM COMMAND_LINE
REM seed 1541421956 783359982 931590271 -1571493757 1860135620 238915853 1656698707 291348573 634495764 673105317 -444614777 1295049497
REM
REM S 3|1.8|5|6|7|30:31:32(qc=5)
REM O 2|1.5|12|13|15|20:21(qc=5)
REM Li 1|1.3|8|9|10|10U:20(qc=5)
REM Fe 3|2.2|2.0|1.0|8|9|10|40:41:32(qc=5)
REM Fe d:4.0 
REM
CELL 1.54180    3.89556    6.34436    6.90866   90.00000   90.00000  108.58918
LATT -1
SFAC Li O  S  Fe 
Li     1 -0.3154620000000 -0.2903110000000  0.3014320000000 1.0  -0.02
Li     1 -0.3154620000000 -0.2903110000000 -0.3014320000000 1.0  -0.02
Li     1  0.3309460000000 -0.0015250000000 -0.3225880000000 1.0  -0.00
Li     1  0.3309460000000 -0.0015250000000  0.3225880000000 1.0  -0.00
Li     1  0.1583780000000  0.6396940000000 -0.0000000000000 1.0   0.03
O      2  0.1799520000000 -0.3017060000000 -0.2520320000000 1.0   0.17
O      2  0.1799520000000 -0.3017060000000  0.2520320000000 1.0   0.17
O      2 -0.4187060000000  0.5050100000000 -0.5000000000000 1.0   0.38
S      3 -0.1228570000000  0.0909460000000  0.5000000000000 1.0   0.14
Fe     4  0.0808370000000 -0.4954900000000  0.5000000000000 1.0   4.16
END
