TITL LFSO-Li4Fe3S3O2-201030-002430-b8b68b -0.1738 529.033976 -1.03466299E+004 24.0000 24.5213 24 (C2) n - 1
REM
REM Run started: Fri, 30 Oct 2020 16:37:47 +0000 in /lustre/scratch/uccabz1/launch_tmp/launcher_2020-10-30-11-38-18-126578
REM CASTEP 20.1 from code version af48c487+ pr-geom-scf-spinfix Tue Jun 2 15:39:59 2020 +0100
REM Functional Perdew Burke Ernzerhof Relativity Koelling-Harmon Dispersion off
REM Cut-off 340.0000 eV Grid scale 1.7500 Gmax 16.5316 1/A FBSC none
REM MP grid 3 3 2 Offset 0.000 0.000 0.000 No. kpts 6 Spacing 0.07
REM Total runtime: 51306.5 s
REM Overall efficiency: 70.8462 %
REM
REM
REM
REM compiler GCC version 4.9.2
REM options -cpp -iprefix /lustre/shared/ucl/apps/gcc/4.9.2/bin/../lib/gcc/x86_64-unknown-linux-gnu/4.9.2/ -mtune=corei7 -march=x86-64 -g -Og
REM COMMAND_LINE
REM seed 2048101536 -824873234 -1208210128 -456503566 -1430537748 829303022 856690300 231792374 272607643 683228748 1262622985 1425664810
REM
REM S 3|1.8|5|6|7|30:31:32(qc=5)
REM O 2|1.5|12|13|15|20:21(qc=5)
REM Li 1|1.3|8|9|10|10U:20(qc=5)
REM Fe 3|2.2|2.0|1.0|8|9|10|40:41:32(qc=5)
REM Fe d:4.0 
REM
CELL 1.54180    8.09743    8.09743   14.18612   59.23478   59.23478   42.90568
LATT -1
SFAC Li O  S  Fe 
Li     1 -0.0808150000000  0.5814540000000  0.2814420000000 1.0  -0.07
Li     1 -0.5814540000000  0.0808150000000 -0.2814420000000 1.0  -0.07
Li     1  0.1320380000000 -0.0249530000000  0.1100250000000 1.0  -0.03
Li     1  0.0249530000000 -0.1320380000000 -0.1100250000000 1.0  -0.03
Li     1 -0.0217700000000  0.1715870000000  0.3638990000000 1.0   0.00
Li     1 -0.1715870000000  0.0217700000000 -0.3638990000000 1.0   0.00
Li     1  0.3607090000000 -0.2391990000000 -0.4497680000000 1.0   0.00
Li     1  0.2391990000000 -0.3607090000000  0.4497680000000 1.0   0.00
O      2  0.0687470000000 -0.6675690000000  0.2228990000000 1.0   0.16
O      2  0.6675690000000 -0.0687470000000 -0.2228990000000 1.0   0.16
O      2  0.3199830000000  0.0777550000000  0.0590190000000 1.0   0.17
O      2 -0.0777550000000 -0.3199830000000 -0.0590190000000 1.0   0.17
S      3  0.4898580000000 -0.2474260000000  0.3589500000000 1.0   0.11
S      3  0.2474260000000 -0.4898580000000 -0.3589500000000 1.0   0.11
S      3 -0.0074960000000  0.2247910000000 -0.1858990000000 1.0   0.08
S      3 -0.2247910000000  0.0074960000000  0.1858990000000 1.0   0.08
S      3  0.1071530000000  0.2094860000000  0.5074880000000 1.0   0.08
S      3 -0.2094860000000 -0.1071530000000 -0.5074880000000 1.0   0.08
Fe     4 -0.0606390000000 -0.4350710000000 -0.1852050000000 1.0   3.84
Fe     4  0.4350710000000  0.0606390000000  0.1852050000000 1.0   3.84
Fe     4 -0.0080030000000  0.4532010000000 -0.3850560000000 1.0   3.84
Fe     4 -0.4532010000000  0.0080030000000  0.3850560000000 1.0   3.84
Fe     4  0.5664410000000 -0.0294790000000 -0.0753350000000 1.0   3.81
Fe     4  0.0294790000000 -0.5664410000000  0.0753350000000 1.0   3.81
END
