TITL LFSO-Li2FeSO-201025-100922-9a9f82 -0.0789 295.844163 -8.01244936E+003 15.9987 16.2234 20 (I212121) n - 1
REM
REM Run started: Sun, 25 Oct 2020 13:02:08 +0000 in /scratch/scratch/uccabz1/launch_tmp/launcher_2020-10-25-10-09-21-225306
REM CASTEP 19.11| from code version Version unavailable
REM Functional Perdew Burke Ernzerhof Relativity Koelling-Harmon Dispersion off
REM Cut-off 340.0000 eV Grid scale 1.7500 Gmax 16.5316 1/A FBSC none
REM MP grid 3 3 3 Offset 0.000 0.000 0.000 No. kpts 8 Spacing 0.07
REM Total runtime: 11029.6 s
REM Overall efficiency: 74.8571 %
REM
REM
REM
REM compiler GCC version 4.9.2
REM options -cpp -iprefix /scratch/UCL/applications/gcc/4.9.2/bin/../lib/gcc/x86_64-unknown-linux-gnu/4.9.2/ -mtune=corei7 -march=x86-64 -g -O2
REM COMMAND_LINE
REM seed 1262621484 1928739156 -819383206 1652951682 1757486089 1070965792 -973847521 64249308 290045280 1378016307 -1047231911 1343044276
REM
REM S 3|1.8|5|6|7|30:31:32(qc=5)
REM O 2|1.5|12|13|15|20:21(qc=5)
REM Li 1|1.3|8|9|10|10U:20(qc=5)
REM Fe 3|2.2|2.0|1.0|8|9|10|40:41:32(qc=5)
REM Fe d:4.0 
REM
CELL 1.54180    8.32561    7.93491    7.93491   43.11661   58.35740   58.35740
LATT -1
SFAC Li O  S  Fe 
Li     1 -0.3365840000000 -0.0042540000000  0.3419600000000 1.0  -0.03
Li     1  0.0011230000000 -0.4957460000000  0.1580400000000 1.0  -0.03
Li     1 -0.1634160000000  0.1580400000000 -0.4957460000000 1.0  -0.03
Li     1  0.4988770000000  0.3419600000000 -0.0042540000000 1.0  -0.03
Li     1  0.3039140000000  0.0229370000000 -0.4144380000000 1.0  -0.00
Li     1 -0.0875860000000 -0.5229370000000 -0.0855620000000 1.0  -0.00
Li     1  0.1960860000000 -0.0855620000000 -0.5229370000000 1.0  -0.00
Li     1 -0.4124140000000 -0.4144380000000  0.0229370000000 1.0  -0.00
O      2 -0.2665370000000 -0.4604170000000  0.1902490000000 1.0   0.16
O      2 -0.5367050000000 -0.0395830000000  0.3097510000000 1.0   0.16
O      2 -0.2334630000000  0.3097510000000 -0.0395830000000 1.0   0.16
O      2  0.0367050000000  0.1902490000000 -0.4604170000000 1.0   0.16
S      3  0.2577690000000  0.4327820000000 -0.1638410000000 1.0   0.16
S      3  0.5267100000000  0.0672180000000  0.6638410000000 1.0   0.16
S      3  0.2422310000000  0.6638410000000  0.0672180000000 1.0   0.16
S      3 -0.0267110000000 -0.1638410000000  0.4327820000000 1.0   0.16
Fe     4  0.0262790000000 -0.5275820000000  0.4925320000000 1.0   3.72
Fe     4 -0.0087710000000  0.0275820000000  0.0074680000000 1.0   3.72
Fe     4  0.4737210000000  0.0074680000000  0.0275820000000 1.0   3.72
Fe     4  0.5087710000000  0.4925320000000 -0.5275820000000 1.0   3.72
END
