TITL LFSO-Li2Fe4S3O2-201025-185834-8a672e 0.0861 217.562215 -5.63359422E+003 8.07347 15.5021 11 (P3) n - 1
REM
REM Run started: Tue, 27 Oct 2020 23:36:54 +0000 in /scratch/scratch/uccabz1/launch_tmp/launcher_2020-10-27-22-06-00-447219
REM CASTEP 19.11| from code version Version unavailable
REM Functional Perdew Burke Ernzerhof Relativity Koelling-Harmon Dispersion off
REM Cut-off 340.0000 eV Grid scale 1.7500 Gmax 16.5316 1/A FBSC none
REM MP grid 3 3 3 Offset 0.000 0.000 0.000 No. kpts 8 Spacing 0.07
REM Total runtime: 8235.43 s
REM Overall efficiency: 93.5714 %
REM
REM
REM
REM compiler GCC version 4.9.2
REM options -cpp -iprefix /scratch/UCL/applications/gcc/4.9.2/bin/../lib/gcc/x86_64-unknown-linux-gnu/4.9.2/ -mtune=corei7 -march=x86-64 -g -O2
REM COMMAND_LINE
REM seed 522140793 -1431105230 292767793 -630830951 -2061725932 -706710135 -272234077 1569228927 1114632413 877798704 -2005107565 -90954595
REM
REM S 3|1.8|5|6|7|30:31:32(qc=5)
REM O 2|1.5|12|13|15|20:21(qc=5)
REM Li 1|1.3|8|9|10|10U:20(qc=5)
REM Fe 3|2.2|2.0|1.0|8|9|10|40:41:32(qc=5)
REM Fe d:4.0 
REM
CELL 1.54180    6.44032    6.44032    6.05672   90.00000   90.00000  120.00000
LATT -1
SFAC Li O  S  Fe 
Li     1  0.3333330000000 -0.3333330000000 -0.1838960000000 1.0   0.09
Li     1 -0.0000000000000  0.0000000000000 -0.2719790000000 1.0  -0.05
O      2 -0.0000000000000  0.0000000000000  0.0523410000000 1.0   0.12
O      2 -0.3333340000000  0.3333340000000  0.0723600000000 1.0   0.19
S      3 -0.3384660000000 -0.3423390000000 -0.4660060000000 1.0  -0.03
S      3 -0.0038740000000  0.3384660000000 -0.4660060000000 1.0  -0.03
S      3  0.3423390000000  0.0038740000000 -0.4660060000000 1.0  -0.03
Fe     4 -0.0996700000000  0.2356060000000  0.1660360000000 1.0   3.81
Fe     4  0.3352750000000  0.0996700000000  0.1660360000000 1.0   3.81
Fe     4 -0.2356060000000 -0.3352750000000  0.1660360000000 1.0   3.81
Fe     4  0.3333330000000 -0.3333330000000  0.4252820000000 1.0  -3.62
END
