TITL LFSO-Li2Fe4S4O-201024-061852-3a9429 0.0426 225.618258 -5.49981340E+003 16.0000 16.1670 11 (P3) n - 1
REM
REM Run started: Sat, 24 Oct 2020 09:17:55 +0100 in /scratch/scratch/uccabz1/launch_tmp/launcher_2020-10-24-05-18-50-742894
REM CASTEP 19.11| from code version Version unavailable
REM Functional Perdew Burke Ernzerhof Relativity Koelling-Harmon Dispersion off
REM Cut-off 340.0000 eV Grid scale 1.7500 Gmax 16.5316 1/A FBSC none
REM MP grid 3 3 3 Offset 0.000 0.000 0.000 No. kpts 8 Spacing 0.07
REM Total runtime: 10806.5 s
REM Overall efficiency: 76.2 %
REM
REM
REM
REM compiler GCC version 4.9.2
REM options -cpp -iprefix /scratch/UCL/applications/gcc/4.9.2/bin/../lib/gcc/x86_64-unknown-linux-gnu/4.9.2/ -mtune=corei7 -march=x86-64 -g -O2
REM COMMAND_LINE
REM seed 1269164853 -683362222 1183203214 -2047825485 280232845 -1360464084 -1128569474 1334798683 -557957950 -374622882 1298570127 913721899
REM
REM S 3|1.8|5|6|7|30:31:32(qc=5)
REM O 2|1.5|12|13|15|20:21(qc=5)
REM Li 1|1.3|8|9|10|10U:20(qc=5)
REM Fe 3|2.2|2.0|1.0|8|9|10|40:41:32(qc=5)
REM Fe d:4.0 
REM
CELL 1.54180    4.78070    7.38203    7.38203  120.00000   90.00000   90.00000
LATT -1
SFAC Li O  S  Fe 
Li     1 -0.3493310000000 -0.0000000000000  0.0000000000000 1.0   0.00
Li     1 -0.0745190000000 -0.3333330000000  0.3333330000000 1.0  -0.20
O      2  0.0645220000000 -0.0000000000000  0.0000000000000 1.0   0.15
S      3 -0.4193730000000 -0.0724550000000  0.2765140000000 1.0   0.20
S      3 -0.4193730000000 -0.2765140000000 -0.3489690000000 1.0   0.20
S      3 -0.4193730000000  0.3489690000000  0.0724550000000 1.0   0.20
S      3  0.0520270000000  0.3333330000000 -0.3333330000000 1.0   0.11
Fe     4  0.1116820000000 -0.3054230000000 -0.2161860000000 1.0   3.89
Fe     4  0.1116820000000  0.2161860000000 -0.0892370000000 1.0   3.89
Fe     4  0.1116820000000  0.0892370000000  0.3054230000000 1.0   3.89
Fe     4  0.4453920000000 -0.3333330000000  0.3333330000000 1.0   3.66
END
