TITL LFSO-Li6FeSO3-201028-084759-3d694a -0.0112 273.052694 -7.35849364E+003 -8.00000 8.23327 22 (P31c) n - 1
REM
REM Run started: Wed, 28 Oct 2020 12:27:29 +0000 in /scratch/scratch/uccabz1/launch_tmp/launcher_2020-10-28-08-47-57-423414
REM CASTEP 19.11| from code version Version unavailable
REM Functional Perdew Burke Ernzerhof Relativity Koelling-Harmon Dispersion off
REM Cut-off 340.0000 eV Grid scale 1.7500 Gmax 16.5316 1/A FBSC none
REM MP grid 3 3 3 Offset 0.000 0.000 0.000 No. kpts 8 Spacing 0.07
REM Total runtime: 13965.5 s
REM Overall efficiency: 94.4 %
REM
REM
REM
REM compiler GCC version 4.9.2
REM options -cpp -iprefix /scratch/UCL/applications/gcc/4.9.2/bin/../lib/gcc/x86_64-unknown-linux-gnu/4.9.2/ -mtune=corei7 -march=x86-64 -g -O2
REM COMMAND_LINE
REM seed 1682001127 390650693 2055418026 -1313058610 487289077 577251798 -1368995181 -1954633772 534484632 1043821487 -1916221308 421139531
REM
REM S 3|1.8|5|6|7|30:31:32(qc=5)
REM O 2|1.5|12|13|15|20:21(qc=5)
REM Li 1|1.3|8|9|10|10U:20(qc=5)
REM Fe 3|2.2|2.0|1.0|8|9|10|40:41:32(qc=5)
REM Fe d:4.0 
REM
CELL 1.54180    5.73500    7.41466    7.41466  120.00000   90.00000   90.00000
LATT -1
SFAC Li O  S  Fe 
Li     1  0.2702330000000 -0.3948400000000 -0.3296650000000 1.0   0.02
Li     1  0.2702330000000  0.0651750000000  0.3948400000000 1.0   0.02
Li     1  0.2702330000000  0.3296650000000 -0.0651750000000 1.0   0.02
Li     1  0.4208340000000 -0.1156260000000 -0.3804170000000 1.0   0.01
Li     1  0.4208340000000 -0.2647910000000  0.1156260000000 1.0   0.01
Li     1  0.4208340000000  0.3804170000000  0.2647910000000 1.0   0.01
Li     1 -0.0788420000000 -0.0495110000000 -0.4497050000000 1.0   0.01
Li     1 -0.0788420000000 -0.4001940000000  0.0495110000000 1.0   0.01
Li     1 -0.0788420000000  0.4497050000000  0.4001940000000 1.0   0.01
Li     1 -0.2299030000000 -0.2738510000000 -0.2724640000000 1.0   0.02
Li     1 -0.2299030000000  0.0013860000000  0.2738510000000 1.0   0.02
Li     1 -0.2299030000000  0.2724640000000 -0.0013860000000 1.0   0.02
O      2  0.0769410000000 -0.1829980000000 -0.3213020000000 1.0  -0.06
O      2  0.0769410000000 -0.1383040000000  0.1829980000000 1.0  -0.06
O      2  0.0769410000000  0.3213020000000  0.1383040000000 1.0  -0.06
O      2  0.5765410000000  0.4730190000000 -0.0121090000000 1.0  -0.06
O      2  0.5765410000000  0.5148720000000 -0.4730190000000 1.0  -0.06
O      2  0.5765410000000  0.0121090000000 -0.5148720000000 1.0  -0.06
S      3 -0.4406130000000  0.0000000000000  0.0000000000000 1.0   0.00
S      3  0.0580260000000  0.3333330000000 -0.3333330000000 1.0   0.00
Fe     4 -0.3925840000000  0.3333330000000 -0.3333330000000 1.0  -3.92
Fe     4  0.1069300000000  0.0000000000000  0.0000000000000 1.0  -3.92
END
