TITL LFSO-Li2Fe4S4O-201024-230401-76dfcc -0.0366 551.163618 -1.10020683E+004 31.9997 32.3713 22 (Pmc21) n - 1
REM
REM Run started: Mon, 26 Oct 2020 03:52:58 +0000 in /lustre/scratch/uccabz1/launch_tmp/launcher_2020-10-24-22-59-48-088881
REM CASTEP 20.1 from code version af48c487+ pr-geom-scf-spinfix Tue Jun 2 15:39:59 2020 +0100
REM Functional Perdew Burke Ernzerhof Relativity Koelling-Harmon Dispersion off
REM Cut-off 340.0000 eV Grid scale 1.7500 Gmax 16.5316 1/A FBSC none
REM MP grid 3 3 1 Offset 0.000 0.000 0.000 No. kpts 4 Spacing 0.07
REM Total runtime: 103377 s
REM Overall efficiency: 77 %
REM
REM
REM
REM compiler GCC version 4.9.2
REM options -cpp -iprefix /lustre/shared/ucl/apps/gcc/4.9.2/bin/../lib/gcc/x86_64-unknown-linux-gnu/4.9.2/ -mtune=corei7 -march=x86-64 -g -Og
REM COMMAND_LINE
REM seed -510318443 -1042252801 -858089766 1387287398 -327664606 -1520798286 -18439106 463435048 1241071130 -942487888 -1406212922 401081577
REM
REM S 3|1.8|5|6|7|30:31:32(qc=5)
REM O 2|1.5|12|13|15|20:21(qc=5)
REM Li 1|1.3|8|9|10|10U:20(qc=5)
REM Fe 3|2.2|2.0|1.0|8|9|10|40:41:32(qc=5)
REM Fe d:4.0 
REM
CELL 1.54180    5.90560    6.08803   15.32992   90.00000   90.00000   90.00000
LATT -1
SFAC Li O  S  Fe 
Li     1  0.1078910000000 -0.0025420000000 -0.3017090000000 1.0  -0.03
Li     1 -0.3921090000000  0.0025420000000  0.3017090000000 1.0  -0.03
Li     1 -0.3921090000000  0.0025420000000 -0.3017090000000 1.0  -0.03
Li     1  0.1078910000000 -0.0025420000000  0.3017090000000 1.0  -0.03
O      2 -0.1714260000000  0.0397330000000  0.0000000000000 1.0   0.22
O      2  0.3285740000000 -0.0397330000000  0.0000000000000 1.0   0.22
S      3 -0.1599360000000 -0.2143150000000  0.1964950000000 1.0   0.09
S      3  0.3400640000000  0.2143150000000 -0.1964950000000 1.0   0.09
S      3  0.3400640000000  0.2143150000000  0.1964950000000 1.0   0.09
S      3 -0.1599360000000 -0.2143150000000 -0.1964950000000 1.0   0.09
S      3 -0.1501140000000  0.2708000000000  0.3601370000000 1.0   0.15
S      3  0.3498860000000 -0.2708000000000 -0.3601370000000 1.0   0.15
S      3  0.3498860000000 -0.2708000000000  0.3601370000000 1.0   0.15
S      3 -0.1501140000000  0.2708000000000 -0.3601370000000 1.0   0.15
Fe     4 -0.3921880000000  0.5080130000000 -0.2870890000000 1.0   3.81
Fe     4  0.1078120000000 -0.5080130000000  0.2870890000000 1.0   3.81
Fe     4  0.1078120000000 -0.5080130000000 -0.2870890000000 1.0   3.81
Fe     4 -0.3921880000000  0.5080130000000  0.2870890000000 1.0   3.81
Fe     4  0.5784120000000 -0.0103370000000 -0.0979950000000 1.0   3.87
Fe     4  0.0784120000000  0.0103370000000  0.0979950000000 1.0   3.87
Fe     4  0.0784120000000  0.0103370000000 -0.0979950000000 1.0   3.87
Fe     4  0.5784120000000 -0.0103370000000  0.0979950000000 1.0   3.87
END
