TITL LFSO-Li4Fe3S3O2-201029-071218-cf1dc1 0.2958 567.045672 -1.03379592E+004 22.3820 24.5917 24 (R3) n - 1
REM
REM Run started: Thu, 29 Oct 2020 21:15:10 +0000 in /scratch/scratch/uccabz1/launch_tmp/launcher_2020-10-29-16-40-27-857813
REM CASTEP 19.11| from code version Version unavailable
REM Functional Perdew Burke Ernzerhof Relativity Koelling-Harmon Dispersion off
REM Cut-off 340.0000 eV Grid scale 1.7500 Gmax 16.5316 1/A FBSC none
REM MP grid 2 2 2 Offset 0.000 0.000 0.000 No. kpts 4 Spacing 0.07
REM Total runtime: 41070.5 s
REM Overall efficiency: 77 %
REM
REM
REM
REM compiler GCC version 4.9.2
REM options -cpp -iprefix /scratch/UCL/applications/gcc/4.9.2/bin/../lib/gcc/x86_64-unknown-linux-gnu/4.9.2/ -mtune=corei7 -march=x86-64 -g -O2
REM COMMAND_LINE
REM seed -285910776 1625337127 87447151 -60183290 1912305597 -144434601 -1614369366 -2071814522 -1148924939 -147364913 -639136826 -1324166106
REM
REM S 3|1.8|5|6|7|30:31:32(qc=5)
REM O 2|1.5|12|13|15|20:21(qc=5)
REM Li 1|1.3|8|9|10|10U:20(qc=5)
REM Fe 3|2.2|2.0|1.0|8|9|10|40:41:32(qc=5)
REM Fe d:4.0 
REM
CELL 1.54180    9.52459    9.52459    9.07378   58.34246   58.34246   60.00000
LATT -1
SFAC Li O  S  Fe 
Li     1  0.3178780000000 -0.0603410000000 -0.3409770000000 1.0  -0.29
Li     1 -0.0603410000000  0.0834400000000 -0.3409770000000 1.0  -0.29
Li     1  0.0834400000000  0.3178780000000 -0.3409770000000 1.0  -0.29
Li     1  0.4995570000000 -0.1912680000000 -0.0571520000000 1.0  -0.00
Li     1 -0.1912680000000 -0.2511370000000 -0.0571520000000 1.0  -0.00
Li     1 -0.2511370000000  0.4995570000000 -0.0571520000000 1.0  -0.00
Li     1  0.3784910000000  0.3784910000000 -0.1354730000000 1.0  -0.08
Li     1 -0.0188880000000 -0.0188880000000  0.0566630000000 1.0  -0.06
O      2  0.4353380000000  0.1226100000000  0.0340630000000 1.0   0.09
O      2  0.1226100000000  0.4079890000000  0.0340630000000 1.0   0.09
O      2  0.4079890000000  0.4353380000000  0.0340630000000 1.0   0.09
O      2 -0.2790010000000 -0.2790010000000 -0.1629970000000 1.0   0.01
S      3 -0.1154830000000 -0.2447550000000  0.1541240000000 1.0   0.01
S      3 -0.2447550000000  0.2061130000000  0.1541240000000 1.0   0.01
S      3  0.2061130000000 -0.1154830000000  0.1541240000000 1.0   0.01
S      3  0.2977270000000  0.4236880000000  0.5186020000000 1.0   0.13
S      3  0.4236880000000 -0.2400180000000  0.5186020000000 1.0   0.13
S      3 -0.2400180000000  0.2977270000000  0.5186020000000 1.0   0.13
Fe     4 -0.4629920000000  0.1930000000000  0.1069610000000 1.0   3.76
Fe     4  0.1930000000000  0.1630310000000  0.1069610000000 1.0   3.76
Fe     4  0.1630310000000 -0.4629920000000  0.1069610000000 1.0   3.76
Fe     4  0.2615650000000 -0.2822120000000 -0.5688680000000 1.0   3.80
Fe     4 -0.2822120000000  0.5895150000000 -0.5688680000000 1.0   3.80
Fe     4  0.5895150000000  0.2615650000000 -0.5688680000000 1.0   3.80
END
