TITL LFSO-Li4Fe2S3O-201027-100314-613000 -0.0242 520.794981 -7.74507912E+003 16.0000 16.2283 20 (R3) n - 1
REM
REM Run started: Tue, 27 Oct 2020 13:55:35 +0000 in /lustre/scratch/uccabz1/launch_tmp/launcher_2020-10-27-10-03-12-562501
REM CASTEP 20.1 from code version af48c487+ pr-geom-scf-spinfix Tue Jun 2 15:39:59 2020 +0100
REM Functional Perdew Burke Ernzerhof Relativity Koelling-Harmon Dispersion off
REM Cut-off 340.0000 eV Grid scale 1.7500 Gmax 16.5316 1/A FBSC none
REM MP grid 2 2 2 Offset 0.000 0.000 0.000 No. kpts 2 Spacing 0.07
REM Total runtime: 15677.9 s
REM Overall efficiency: 71.9167 %
REM
REM
REM
REM compiler GCC version 4.9.2
REM options -cpp -iprefix /lustre/shared/ucl/apps/gcc/4.9.2/bin/../lib/gcc/x86_64-unknown-linux-gnu/4.9.2/ -mtune=corei7 -march=x86-64 -g -Og
REM COMMAND_LINE
REM seed -918008931 -567970292 -1419058956 2028862973 1377271748 -1360904898 1040570341 -541012509 1096186846 360800297 -323117044 -949316289
REM
REM S 3|1.8|5|6|7|30:31:32(qc=5)
REM O 2|1.5|12|13|15|20:21(qc=5)
REM Li 1|1.3|8|9|10|10U:20(qc=5)
REM Fe 3|2.2|2.0|1.0|8|9|10|40:41:32(qc=5)
REM Fe d:4.0 
REM
CELL 1.54180    9.24204    9.24204    9.24204   57.09258   57.09258   57.09258
LATT -1
SFAC Li O  S  Fe 
Li     1 -0.3492130000000 -0.2477540000000  0.3516800000000 1.0  -0.01
Li     1 -0.2477540000000  0.3516800000000 -0.3492130000000 1.0  -0.01
Li     1  0.3516800000000 -0.3492130000000 -0.2477540000000 1.0  -0.01
Li     1 -0.5556790000000  0.1824320000000 -0.3369870000000 1.0  -0.04
Li     1  0.1824320000000 -0.3369870000000 -0.5556790000000 1.0  -0.04
Li     1 -0.3369870000000 -0.5556790000000  0.1824320000000 1.0  -0.04
Li     1  0.5094400000000  0.5094400000000  0.5094400000000 1.0   0.06
Li     1  0.0033090000000  0.0033090000000  0.0033090000000 1.0  -0.02
O      2  0.0861140000000  0.0861140000000  0.0861140000000 1.0   0.24
O      2 -0.4116930000000 -0.4116930000000 -0.4116930000000 1.0   0.17
S      3  0.4851900000000 -0.2698140000000  0.2286290000000 1.0   0.08
S      3 -0.2698140000000  0.2286290000000  0.4851900000000 1.0   0.08
S      3  0.2286290000000  0.4851900000000 -0.2698140000000 1.0   0.08
S      3  0.3719370000000 -0.0886530000000 -0.2404080000000 1.0   0.12
S      3 -0.0886530000000 -0.2404080000000  0.3719370000000 1.0   0.12
S      3 -0.2404080000000  0.3719370000000 -0.0886530000000 1.0   0.12
Fe     4  0.3363040000000 -0.0968790000000  0.0299610000000 1.0   3.77
Fe     4 -0.0968790000000  0.0299610000000  0.3363040000000 1.0   3.77
Fe     4  0.0299610000000  0.3363040000000 -0.0968790000000 1.0   3.77
Fe     4 -0.3274740000000 -0.3274740000000 -0.3274740000000 1.0   3.78
END
