TITL LFSO-Li4Fe3S3O2-201029-131057-e16fd3 0.0074 418.552059 -1.03469787E+004 24.0000 24.5185 24 (R3) n - 1
REM
REM Run started: Fri, 30 Oct 2020 04:55:52 +0000 in /lustre/scratch/uccabz1/launch_tmp/launcher_2020-10-29-22-06-08-249359
REM CASTEP 20.1 from code version af48c487+ pr-geom-scf-spinfix Tue Jun 2 15:39:59 2020 +0100
REM Functional Perdew Burke Ernzerhof Relativity Koelling-Harmon Dispersion off
REM Cut-off 340.0000 eV Grid scale 1.7500 Gmax 16.5316 1/A FBSC none
REM MP grid 2 2 3 Offset 0.000 0.000 0.000 No. kpts 6 Spacing 0.07
REM Total runtime: 59242.4 s
REM Overall efficiency: 82.0769 %
REM
REM
REM
REM compiler GCC version 4.9.2
REM options -cpp -iprefix /scratch/UCL/applications/gcc/4.9.2/bin/../lib/gcc/x86_64-unknown-linux-gnu/4.9.2/ -mtune=corei7 -march=x86-64 -g -O2
REM COMMAND_LINE
REM seed -2060337067 -847015872 1834221597 289530001 -1829515786 703736263 -1527865162 987130839 230324908 407249996 2116120289 -711553277
REM
REM S 3|1.8|5|6|7|30:31:32(qc=5)
REM O 2|1.5|12|13|15|20:21(qc=5)
REM Li 1|1.3|8|9|10|10U:20(qc=5)
REM Fe 3|2.2|2.0|1.0|8|9|10|40:41:32(qc=5)
REM Fe d:4.0 
REM
CELL 1.54180    9.52519    9.52519    7.65628   51.53390   51.53390   60.00000
LATT -1
SFAC Li O  S  Fe 
Li     1  0.2340040000000 -0.4775150000000  0.5413920000000 1.0  -0.01
Li     1 -0.2978800000000  0.2340040000000  0.5413920000000 1.0  -0.01
Li     1 -0.4775150000000 -0.2978800000000  0.5413920000000 1.0  -0.01
Li     1 -0.0258910000000  0.2783010000000 -0.4890180000000 1.0  -0.03
Li     1  0.2366080000000 -0.0258910000000 -0.4890180000000 1.0  -0.03
Li     1  0.2783010000000  0.2366080000000 -0.4890180000000 1.0  -0.03
Li     1 -0.1109890000000 -0.1109890000000  0.3329670000000 1.0  -0.14
Li     1 -0.3602170000000 -0.3602170000000  0.0806500000000 1.0  -0.09
O      2  0.0226700000000  0.0859200000000  0.4668480000000 1.0   0.16
O      2  0.4245620000000  0.0226700000000  0.4668480000000 1.0   0.16
O      2  0.0859200000000  0.4245620000000  0.4668480000000 1.0   0.16
O      2 -0.2386360000000 -0.2386360000000 -0.2840920000000 1.0   0.08
S      3 -0.2104910000000 -0.1914690000000  0.1449480000000 1.0   0.12
S      3  0.2570120000000 -0.2104910000000  0.1449480000000 1.0   0.12
S      3 -0.1914690000000  0.2570120000000  0.1449480000000 1.0   0.12
S      3 -0.3423330000000  0.3820670000000 -0.2571150000000 1.0   0.09
S      3  0.2173810000000 -0.3423330000000 -0.2571150000000 1.0   0.09
S      3  0.3820670000000  0.2173810000000 -0.2571150000000 1.0   0.09
Fe     4 -0.4977630000000 -0.0665820000000 -0.2817200000000 1.0   3.86
Fe     4 -0.1539360000000 -0.4977630000000 -0.2817200000000 1.0   3.86
Fe     4 -0.0665820000000 -0.1539360000000 -0.2817200000000 1.0   3.86
Fe     4  0.1120350000000  0.1335870000000  0.1274660000000 1.0   3.86
Fe     4 -0.3730880000000  0.1120350000000  0.1274660000000 1.0   3.86
Fe     4  0.1335870000000 -0.3730880000000  0.1274660000000 1.0   3.86
END
