TITL LFSO-Li4Fe3S3O2-201029-054125-83f30e -0.0393 656.709519 -1.03435696E+004 24.0000 24.2518 24 (Pma2) n - 1
REM
REM Run started: Thu, 29 Oct 2020 12:42:02 +0000 in /lustre/scratch/uccabz1/launch_tmp/launcher_2020-10-29-05-41-24-160523
REM CASTEP 20.1 from code version af48c487+ pr-geom-scf-spinfix Tue Jun 2 15:39:59 2020 +0100
REM Functional Perdew Burke Ernzerhof Relativity Koelling-Harmon Dispersion off
REM Cut-off 340.0000 eV Grid scale 1.7500 Gmax 16.5316 1/A FBSC none
REM MP grid 4 2 1 Offset 0.000 0.000 0.000 No. kpts 2 Spacing 0.07
REM Total runtime: 28207.4 s
REM Overall efficiency: 78.8333 %
REM
REM
REM
REM compiler GCC version 4.9.2
REM options -cpp -iprefix /lustre/shared/ucl/apps/gcc/4.9.2/bin/../lib/gcc/x86_64-unknown-linux-gnu/4.9.2/ -mtune=corei7 -march=x86-64 -g -Og
REM COMMAND_LINE
REM seed -1483665068 -1785125560 661739260 -1739141891 1621813921 723011986 -1551118253 1631564099 -1368621161 -2022495259 29386386 1238211089
REM
REM S 3|1.8|5|6|7|30:31:32(qc=5)
REM O 2|1.5|12|13|15|20:21(qc=5)
REM Li 1|1.3|8|9|10|10U:20(qc=5)
REM Fe 3|2.2|2.0|1.0|8|9|10|40:41:32(qc=5)
REM Fe d:4.0 
REM
CELL 1.54180    3.74152    9.12838   19.22791   90.00000   90.00000   90.00000
LATT -1
SFAC Li O  S  Fe 
Li     1  0.1494890000000 -0.1283680000000 -0.0872340000000 1.0  -0.03
Li     1 -0.1494890000000 -0.1283680000000  0.0872340000000 1.0  -0.03
Li     1 -0.1494890000000 -0.1283680000000  0.4127660000000 1.0  -0.03
Li     1  0.1494890000000 -0.1283680000000 -0.4127660000000 1.0  -0.03
Li     1  0.2744130000000  0.3735190000000 -0.3205710000000 1.0  -0.01
Li     1 -0.2744130000000  0.3735190000000  0.3205710000000 1.0  -0.01
Li     1 -0.2744130000000  0.3735190000000  0.1794290000000 1.0  -0.01
Li     1  0.2744130000000  0.3735190000000 -0.1794290000000 1.0  -0.01
O      2 -0.3434750000000 -0.1799200000000 -0.4152810000000 1.0   0.15
O      2  0.3434750000000 -0.1799200000000  0.4152810000000 1.0   0.15
O      2  0.3434750000000 -0.1799200000000  0.0847190000000 1.0   0.15
O      2 -0.3434750000000 -0.1799200000000 -0.0847190000000 1.0   0.15
S      3  0.2270860000000 -0.4792880000000 -0.0820690000000 1.0   0.15
S      3 -0.2270860000000 -0.4792880000000  0.0820690000000 1.0   0.15
S      3 -0.2270860000000 -0.4792880000000  0.4179310000000 1.0   0.15
S      3  0.2270860000000 -0.4792880000000 -0.4179310000000 1.0   0.15
S      3  0.2348660000000  0.4514390000000  0.2500000000000 1.0   0.04
S      3 -0.2348660000000  0.4514390000000 -0.2500000000000 1.0   0.04
Fe     4 -0.2720720000000  0.6268330000000 -0.1382030000000 1.0   3.82
Fe     4  0.2720720000000  0.6268330000000  0.1382030000000 1.0   3.82
Fe     4  0.2720720000000  0.6268330000000  0.3617970000000 1.0   3.82
Fe     4 -0.2720720000000  0.6268330000000 -0.3617970000000 1.0   3.82
Fe     4 -0.5000000000000 -0.3041510000000 -0.0000000000000 1.0   3.78
Fe     4 -0.5000000000000 -0.3041510000000 -0.5000000000000 1.0   3.78
END
