TITL LFSO-Li2Fe3S2O2-201022-135849-01fa01 0.0002 136.225043 -4.46885274E+003 11.9989 12.0777 9 (Imm2) n - 1
REM
REM Run started: Thu, 22 Oct 2020 18:18:51 +0100 in /lustre/scratch/uccabz1/launch_tmp/launcher_2020-10-22-12-58-46-714119
REM CASTEP 20.1 from code version af48c487+ pr-geom-scf-spinfix Tue Jun 2 15:39:59 2020 +0100
REM Functional Perdew Burke Ernzerhof Relativity Koelling-Harmon Dispersion off
REM Cut-off 340.0000 eV Grid scale 1.7500 Gmax 16.5316 1/A FBSC none
REM MP grid 6 5 3 Offset 0.000 0.000 0.000 No. kpts 45 Spacing 0.07
REM Total runtime: 15612.1 s
REM Overall efficiency: 88 %
REM
REM
REM
REM compiler GCC version 4.9.2
REM options -cpp -iprefix /lustre/shared/ucl/apps/gcc/4.9.2/bin/../lib/gcc/x86_64-unknown-linux-gnu/4.9.2/ -mtune=corei7 -march=x86-64 -g -Og
REM COMMAND_LINE
REM seed 1681944783 -175077757 1122593223 -739355884 -1426554872 305286248 -452013231 -59098234 1737843419 -727319428 758090214 812419204
REM
REM S 3|1.8|5|6|7|30:31:32(qc=5)
REM O 2|1.5|12|13|15|20:21(qc=5)
REM Li 1|1.3|8|9|10|10U:20(qc=5)
REM Fe 3|2.2|2.0|1.0|8|9|10|40:41:32(qc=5)
REM Fe d:4.0 
REM
CELL 1.54180    7.77025    7.77025    7.77025   52.46051  134.04904  156.06894
LATT -1
SFAC Li O  S  Fe 
Li     1 -0.1233010000000 -0.1891460000000 -0.3124470000000 1.0  -0.01
Li     1 -0.1233010000000  0.1891460000000  0.0658450000000 1.0  -0.01
O      2  0.1925300000000 -0.3903830000000 -0.1978530000000 1.0   0.20
O      2  0.1925300000000  0.3903830000000  0.5829130000000 1.0   0.20
S      3 -0.3138540000000  0.3594070000000  0.0455530000000 1.0   0.19
S      3  0.6861460000000 -0.3594070000000  0.3267400000000 1.0   0.19
Fe     4 -0.5267100000000  0.1102550000000 -0.4164560000000 1.0   3.72
Fe     4  0.4732900000000 -0.1102550000000  0.3630350000000 1.0   3.72
Fe     4 -0.5874480000000  0.5000000000000 -0.0874480000000 1.0   3.78
END
