TITL LFSO-Li5FeS2O2-201026-215923-5bc7a9 0.0567 144.337719 -3.34507687E+003 3.00143 3.86692 10 (C2) n - 1
REM
REM Run started: Mon, 26 Oct 2020 23:18:17 +0000 in /lustre/scratch/uccabz1/launch_tmp/launcher_2020-10-26-21-59-21-326873
REM CASTEP 20.1 from code version af48c487+ pr-geom-scf-spinfix Tue Jun 2 15:39:59 2020 +0100
REM Functional Perdew Burke Ernzerhof Relativity Koelling-Harmon Dispersion off
REM Cut-off 340.0000 eV Grid scale 1.7500 Gmax 16.5316 1/A FBSC none
REM MP grid 4 4 4 Offset 0.000 0.000 0.000 No. kpts 20 Spacing 0.07
REM Total runtime: 4853.53 s
REM Overall efficiency: 86.8 %
REM
REM
REM
REM compiler GCC version 4.9.2
REM options -cpp -iprefix /lustre/shared/ucl/apps/gcc/4.9.2/bin/../lib/gcc/x86_64-unknown-linux-gnu/4.9.2/ -mtune=corei7 -march=x86-64 -g -Og
REM COMMAND_LINE
REM seed 237060513 -1720173382 -2053601202 1980726136 1120146807 396869392 -451663326 1020800553 931223995 -85008091 1517955178 1798832958
REM
REM S 3|1.8|5|6|7|30:31:32(qc=5)
REM O 2|1.5|12|13|15|20:21(qc=5)
REM Li 1|1.3|8|9|10|10U:20(qc=5)
REM Fe 3|2.2|2.0|1.0|8|9|10|40:41:32(qc=5)
REM Fe d:4.0 
REM
CELL 1.54180    5.99724    5.99724    8.18788  135.56323  135.56323   59.79817
LATT -1
SFAC Li O  S  Fe 
Li     1 -0.1754060000000  0.6374230000000  0.0404490000000 1.0  -0.02
Li     1 -0.6374230000000  0.1754060000000 -0.0404490000000 1.0  -0.02
Li     1  0.1594760000000 -0.6656990000000 -0.3650070000000 1.0  -0.00
Li     1  0.6656990000000 -0.1594760000000  0.3650070000000 1.0  -0.00
Li     1  0.5817830000000 -0.5817830000000 -0.5000000000000 1.0   0.00
O      2 -0.5079230000000 -0.0243860000000  0.1435420000000 1.0   0.06
O      2  0.0243860000000  0.5079230000000 -0.1435420000000 1.0   0.06
S      3 -0.4425320000000 -0.0385740000000 -0.3443670000000 1.0  -0.20
S      3  0.0385740000000  0.4425320000000  0.3443670000000 1.0  -0.20
Fe     4  0.0703770000000 -0.0703770000000  0.0000000000000 1.0   3.32
END
