TITL LFSO-Li4Fe3S4O-201029-015320-868745 -0.0114 230.435999 -5.03954790E+003 12.0000 12.1159 12 (P2) n - 1
REM
REM Run started: Thu, 29 Oct 2020 03:06:10 +0000 in /lustre/scratch/uccabz1/launch_tmp/launcher_2020-10-29-01-53-17-551486
REM CASTEP 20.1 from code version af48c487+ pr-geom-scf-spinfix Tue Jun 2 15:39:59 2020 +0100
REM Functional Perdew Burke Ernzerhof Relativity Koelling-Harmon Dispersion off
REM Cut-off 340.0000 eV Grid scale 1.7500 Gmax 16.5316 1/A FBSC none
REM MP grid 3 3 3 Offset 0.000 0.000 0.000 No. kpts 10 Spacing 0.07
REM Total runtime: 5383.6 s
REM Overall efficiency: 78.5 %
REM
REM
REM
REM compiler GCC version 4.9.2
REM options -cpp -iprefix /lustre/shared/ucl/apps/gcc/4.9.2/bin/../lib/gcc/x86_64-unknown-linux-gnu/4.9.2/ -mtune=corei7 -march=x86-64 -g -Og
REM COMMAND_LINE
REM seed -283244138 -920860144 -752391655 992555093 1479681100 933879267 -407764093 221650760 -1430350579 2001387265 688863356 -2036941544
REM
REM S 3|1.8|5|6|7|30:31:32(qc=5)
REM O 2|1.5|12|13|15|20:21(qc=5)
REM Li 1|1.3|8|9|10|10U:20(qc=5)
REM Fe 3|2.2|2.0|1.0|8|9|10|40:41:32(qc=5)
REM Fe d:4.0 
REM
CELL 1.54180    6.62196    6.02695    6.03851   90.00000   72.97401   90.00000
LATT -1
SFAC Li O  S  Fe 
Li     1 -0.0951830000000  0.0129610000000 -0.1697620000000 1.0  -0.00
Li     1  0.0951830000000  0.0129610000000  0.1697620000000 1.0  -0.00
Li     1 -0.3154990000000  0.1707230000000  0.2475840000000 1.0  -0.00
Li     1  0.3154990000000  0.1707230000000 -0.2475840000000 1.0  -0.00
O      2  0.0000000000000  0.2374510000000  0.0000000000000 1.0   0.15
S      3 -0.2230610000000 -0.2432010000000  0.2063810000000 1.0   0.09
S      3  0.2230610000000 -0.2432010000000 -0.2063810000000 1.0   0.09
S      3 -0.2895390000000  0.2984460000000 -0.3727030000000 1.0   0.11
S      3  0.2895390000000  0.2984460000000  0.3727030000000 1.0   0.11
Fe     4 -0.0243820000000  0.4692660000000 -0.2388260000000 1.0   3.80
Fe     4  0.0243820000000  0.4692660000000  0.2388260000000 1.0   3.80
Fe     4  0.5000000000000  0.6021260000000  0.5000000000000 1.0   3.84
END
