TITL LFSO-Li4Fe3S3O2-201029-012555-afe2b8 0.0024 241.344112 -5.17388191E+003 12.0000 12.0981 12 (P-1) n - 1
REM
REM Run started: Thu, 29 Oct 2020 08:37:45 +0000 in /lustre/scratch/uccabz1/launch_tmp/launcher_2020-10-29-01-25-53-222875
REM CASTEP 20.1 from code version af48c487+ pr-geom-scf-spinfix Tue Jun 2 15:39:59 2020 +0100
REM Functional Perdew Burke Ernzerhof Relativity Koelling-Harmon Dispersion off
REM Cut-off 340.0000 eV Grid scale 1.7500 Gmax 16.5316 1/A FBSC none
REM MP grid 4 3 3 Offset 0.000 0.000 0.000 No. kpts 18 Spacing 0.07
REM Total runtime: 27044.6 s
REM Overall efficiency: 97.0909 %
REM
REM
REM
REM compiler GCC version 4.9.2
REM options -cpp -iprefix /lustre/shared/ucl/apps/gcc/4.9.2/bin/../lib/gcc/x86_64-unknown-linux-gnu/4.9.2/ -mtune=corei7 -march=x86-64 -g -Og
REM COMMAND_LINE
REM seed 232186171 1004996505 -1565290335 584870664 1799010622 -967567899 -150806833 -1652439618 268512617 -1669227212 -1449921603 -492730310
REM
REM S 3|1.8|5|6|7|30:31:32(qc=5)
REM O 2|1.5|12|13|15|20:21(qc=5)
REM Li 1|1.3|8|9|10|10U:20(qc=5)
REM Fe 3|2.2|2.0|1.0|8|9|10|40:41:32(qc=5)
REM Fe d:4.0 
REM
CELL 1.54180    6.08646    8.83748    6.26394  108.54027   94.12316  126.47833
LATT -1
SFAC Li O  S  Fe 
Li     1 -0.2868400000000 -0.3159570000000  0.1672180000000 1.0  -0.03
Li     1  0.2868400000000  0.3159570000000 -0.1672180000000 1.0  -0.03
Li     1  0.2359320000000 -0.1383220000000 -0.0839940000000 1.0  -0.03
Li     1 -0.2359320000000  0.1383220000000  0.0839940000000 1.0  -0.03
O      2  0.5121260000000 -0.0727030000000 -0.2461160000000 1.0   0.13
O      2 -0.5121260000000  0.0727030000000  0.2461160000000 1.0   0.13
S      3  0.2780140000000  0.4262430000000  0.2210420000000 1.0   0.06
S      3 -0.2780140000000 -0.4262430000000 -0.2210420000000 1.0   0.06
S      3  0.0000000000000  0.0000000000000 -0.5000000000000 1.0   0.17
Fe     4  0.5970630000000 -0.2604110000000 -0.3784790000000 1.0   3.86
Fe     4 -0.5970630000000  0.2604110000000  0.3784790000000 1.0   3.86
Fe     4  0.5000000000000  0.0000000000000  0.5000000000000 1.0   3.86
END
