TITL LFSO-Li2Fe3S2O2-201024-021420-d64905 0.0009 172.309542 -4.46806974E+003 3.23057 11.2816 9 (Cm) n - 1
REM
REM Run started: Sat, 24 Oct 2020 03:40:07 +0100 in /lustre/scratch/uccabz1/launch_tmp/launcher_2020-10-24-01-14-19-357164
REM CASTEP 20.1 from code version af48c487+ pr-geom-scf-spinfix Tue Jun 2 15:39:59 2020 +0100
REM Functional Perdew Burke Ernzerhof Relativity Koelling-Harmon Dispersion off
REM Cut-off 340.0000 eV Grid scale 1.7500 Gmax 16.5316 1/A FBSC none
REM MP grid 5 3 3 Offset 0.000 0.000 0.000 No. kpts 16 Spacing 0.07
REM Total runtime: 6030.77 s
REM Overall efficiency: 94.8571 %
REM
REM
REM
REM compiler GCC version 4.9.2
REM options -cpp -iprefix /lustre/shared/ucl/apps/gcc/4.9.2/bin/../lib/gcc/x86_64-unknown-linux-gnu/4.9.2/ -mtune=corei7 -march=x86-64 -g -Og
REM COMMAND_LINE
REM seed -1471171590 281596290 -850992537 80979022 -801271241 1763775439 -1049459937 -1431900356 -1284926519 1264915988 1130986593 1515886467
REM
REM S 3|1.8|5|6|7|30:31:32(qc=5)
REM O 2|1.5|12|13|15|20:21(qc=5)
REM Li 1|1.3|8|9|10|10U:20(qc=5)
REM Fe 3|2.2|2.0|1.0|8|9|10|40:41:32(qc=5)
REM Fe d:4.0 
REM
CELL 1.54180    3.24125    8.79649    7.47504  126.04297   90.68247   90.00000
LATT -1
SFAC Li O  S  Fe 
Li     1  0.0863670000000 -0.5438770000000 -0.6539540000000 1.0  -0.02
Li     1  0.0863670000000 -0.1100770000000 -0.6539540000000 1.0  -0.02
O      2 -0.3990510000000  0.3754490000000  0.4303670000000 1.0   0.03
O      2 -0.3990510000000  0.0549180000000  0.4303670000000 1.0   0.03
S      3  0.0989490000000 -0.2276790000000 -0.0254560000000 1.0  -0.02
S      3  0.0989490000000  0.2022230000000 -0.0254560000000 1.0  -0.02
Fe     4 -0.4126080000000  0.1751570000000 -0.2591760000000 1.0   3.55
Fe     4 -0.4126080000000 -0.4343330000000 -0.2591760000000 1.0   3.55
Fe     4  0.0886720000000  0.1571080000000  0.3142160000000 1.0  -3.85
END
