TITL LFSO-Li4Fe3S4O-201021-224310-260c77 0.0032 215.439775 -5.03892437E+003 12.0000 12.0885 12 (R3) n - 1
REM
REM Run started: Thu, 22 Oct 2020 00:01:47 +0100 in /scratch/scratch/uccabz1/launch_tmp/launcher_2020-10-21-21-43-08-491639
REM CASTEP 19.11| from code version Version unavailable
REM Functional Perdew Burke Ernzerhof Relativity Koelling-Harmon Dispersion off
REM Cut-off 340.0000 eV Grid scale 1.7500 Gmax 16.5316 1/A FBSC none
REM MP grid 3 3 3 Offset 0.000 0.000 0.000 No. kpts 6 Spacing 0.07
REM Total runtime: 4954.66 s
REM Overall efficiency: 95.6667 %
REM
REM
REM
REM compiler GCC version 4.9.2
REM options -cpp -iprefix /scratch/UCL/applications/gcc/4.9.2/bin/../lib/gcc/x86_64-unknown-linux-gnu/4.9.2/ -mtune=corei7 -march=x86-64 -g -O2
REM COMMAND_LINE
REM seed -1496920895 280028411 1657737658 401991393 -876026421 -1116443189 -2067982655 -229456316 984373203 -354121726 1321912897 140820644
REM
REM S 3|1.8|5|6|7|30:31:32(qc=5)
REM O 2|1.5|12|13|15|20:21(qc=5)
REM Li 1|1.3|8|9|10|10U:20(qc=5)
REM Fe 3|2.2|2.0|1.0|8|9|10|40:41:32(qc=5)
REM Fe d:4.0 
REM
CELL 1.54180    7.12876    7.12876    7.12876   53.21186   53.21186   53.21186
LATT -1
SFAC Li O  S  Fe 
Li     1  0.4515770000000 -0.3458080000000 -0.0296490000000 1.0   0.01
Li     1 -0.0296490000000  0.4515770000000 -0.3458080000000 1.0   0.01
Li     1 -0.3458080000000 -0.0296490000000  0.4515770000000 1.0   0.01
Li     1 -0.0076900000000 -0.0076900000000 -0.0076900000000 1.0   0.01
O      2 -0.1118810000000 -0.1118810000000 -0.1118810000000 1.0   0.16
S      3 -0.2162820000000  0.3845910000000  0.1113960000000 1.0   0.09
S      3  0.1113960000000 -0.2162820000000  0.3845910000000 1.0   0.09
S      3  0.3845910000000  0.1113960000000 -0.2162820000000 1.0   0.09
S      3 -0.4107420000000 -0.4107420000000 -0.4107420000000 1.0   0.03
Fe     4  0.1519210000000 -0.4341530000000 -0.2035640000000 1.0   3.83
Fe     4 -0.2035640000000  0.1519210000000 -0.4341530000000 1.0   3.83
Fe     4 -0.4341530000000 -0.2035640000000  0.1519210000000 1.0   3.83
END
