TITL LFSO-Li2FeSO-201024-193021-016d58 -0.0168 200.675280 -4.00307030E+003 6.73569 7.53364 10 (Pmm2) n - 1
REM
REM Run started: Sat, 24 Oct 2020 20:47:12 +0100 in /lustre/scratch/uccabz1/launch_tmp/launcher_2020-10-24-18-30-17-675167
REM CASTEP 20.1 from code version af48c487+ pr-geom-scf-spinfix Tue Jun 2 15:39:59 2020 +0100
REM Functional Perdew Burke Ernzerhof Relativity Koelling-Harmon Dispersion off
REM Cut-off 340.0000 eV Grid scale 1.7500 Gmax 16.5316 1/A FBSC none
REM MP grid 4 4 2 Offset 0.000 0.000 0.000 No. kpts 10 Spacing 0.07
REM Total runtime: 4855.32 s
REM Overall efficiency: 84.8571 %
REM
REM
REM
REM compiler GCC version 4.9.2
REM options -cpp -iprefix /lustre/shared/ucl/apps/gcc/4.9.2/bin/../lib/gcc/x86_64-unknown-linux-gnu/4.9.2/ -mtune=corei7 -march=x86-64 -g -Og
REM COMMAND_LINE
REM seed 834194472 -394477720 1886983039 -1712779463 -800825772 -751717131 772970111 45471420 -1140539750 2079992448 -1358678518 880847692
REM
REM S 3|1.8|5|6|7|30:31:32(qc=5)
REM O 2|1.5|12|13|15|20:21(qc=5)
REM Li 1|1.3|8|9|10|10U:20(qc=5)
REM Fe 3|2.2|2.0|1.0|8|9|10|40:41:32(qc=5)
REM Fe d:4.0 
REM
CELL 1.54180    5.44050    5.44050    7.96854  101.87482  101.87482  113.40439
LATT -1
SFAC Li O  S  Fe 
Li     1  0.3572510000000 -0.2072000000000 -0.3524050000000 1.0  -0.05
Li     1  0.2072000000000 -0.3572510000000  0.3524050000000 1.0  -0.05
Li     1 -0.2903440000000  0.1452040000000  0.3524050000000 1.0  -0.05
Li     1 -0.1452040000000  0.2903440000000 -0.3524050000000 1.0  -0.05
O      2 -0.4672340000000 -0.0341800000000  0.4985860000000 1.0   0.40
O      2  0.0341800000000  0.4672340000000 -0.4985860000000 1.0   0.40
S      3  0.5218730000000 -0.0199490000000 -0.0000000000000 1.0  -0.16
S      3  0.0199490000000 -0.5218730000000 -0.0000000000000 1.0  -0.16
Fe     4  0.2707370000000  0.2294870000000 -0.0000000000000 1.0   3.22
Fe     4 -0.2294870000000 -0.2707370000000 -0.0000000000000 1.0   3.22
END
