TITL LFSO-Li5FeSO3-201026-151202-daa9a2 -0.2936 301.358064 -6.95862292E+003 8.00000 8.13852 20 (P-1) n - 1
REM
REM Run started: Wed, 28 Oct 2020 00:55:03 +0000 in /scratch/scratch/uccabz1/launch_tmp/launcher_2020-10-28-00-32-37-890269
REM CASTEP 19.11| from code version Version unavailable
REM Functional Perdew Burke Ernzerhof Relativity Koelling-Harmon Dispersion off
REM Cut-off 340.0000 eV Grid scale 1.7500 Gmax 16.5316 1/A FBSC none
REM MP grid 3 3 2 Offset 0.000 0.000 0.000 No. kpts 9 Spacing 0.07
REM Total runtime: 10966.1 s
REM Overall efficiency: 77.5714 %
REM
REM
REM
REM compiler GCC version 4.9.2
REM options -cpp -iprefix /scratch/UCL/applications/gcc/4.9.2/bin/../lib/gcc/x86_64-unknown-linux-gnu/4.9.2/ -mtune=corei7 -march=x86-64 -g -O2
REM COMMAND_LINE
REM seed -87151109 1524570839 1551531301 1891833972 -1254887618 181375026 175401006 2001270216 -531984105 -506914864 -1932633738 361119446
REM
REM S 3|1.8|5|6|7|30:31:32(qc=5)
REM O 2|1.5|12|13|15|20:21(qc=5)
REM Li 1|1.3|8|9|10|10U:20(qc=5)
REM Fe 3|2.2|2.0|1.0|8|9|10|40:41:32(qc=5)
REM Fe d:4.0 
REM
CELL 1.54180    7.37647    5.79548    9.31442   81.32666  125.73418  110.78321
LATT -1
SFAC Li O  S  Fe 
Li     1  0.1232160000000 -0.4165290000000  0.2832160000000 1.0  -0.01
Li     1 -0.1232160000000  0.4165290000000 -0.2832160000000 1.0  -0.01
Li     1  0.2373390000000 -0.2217620000000  0.0101570000000 1.0   0.02
Li     1 -0.2373390000000  0.2217620000000 -0.0101570000000 1.0   0.02
Li     1  0.0380730000000 -0.0423490000000  0.2951020000000 1.0  -0.05
Li     1 -0.0380730000000  0.0423490000000 -0.2951020000000 1.0  -0.05
Li     1  0.4186290000000 -0.0244050000000  0.3557410000000 1.0  -0.02
Li     1 -0.4186290000000  0.0244050000000 -0.3557410000000 1.0  -0.02
Li     1 -0.1539290000000 -0.1851220000000 -0.0591200000000 1.0  -0.01
Li     1  0.1539290000000  0.1851220000000  0.0591200000000 1.0  -0.01
O      2  0.0601880000000 -0.2403510000000 -0.2342760000000 1.0   0.09
O      2 -0.0601880000000  0.2403510000000  0.2342760000000 1.0   0.09
O      2 -0.1458590000000  0.1445050000000 -0.1401000000000 1.0   0.00
O      2  0.1458590000000 -0.1445050000000  0.1401000000000 1.0   0.00
O      2  0.2711800000000 -0.1716670000000 -0.5114280000000 1.0   0.09
O      2 -0.2711800000000  0.1716670000000  0.5114280000000 1.0   0.09
S      3 -0.4688810000000 -0.4756770000000  0.1266450000000 1.0   0.07
S      3  0.4688810000000  0.4756770000000 -0.1266450000000 1.0   0.07
Fe     4  0.2127860000000 -0.2612470000000 -0.3349620000000 1.0   3.81
Fe     4 -0.2127860000000  0.2612470000000  0.3349620000000 1.0   3.81
END
