TITL LFSO-Li2FeSO-201025-054551-2c2380 0.0132 203.953041 -4.00749799E+003 8.00000 8.13203 10 (Cc) n - 1
REM
REM Run started: Sun, 25 Oct 2020 07:59:27 +0000 in /lustre/scratch/uccabz1/launch_tmp/launcher_2020-10-25-05-45-49-646362
REM CASTEP 20.1 from code version af48c487+ pr-geom-scf-spinfix Tue Jun 2 15:39:59 2020 +0100
REM Functional Perdew Burke Ernzerhof Relativity Koelling-Harmon Dispersion off
REM Cut-off 340.0000 eV Grid scale 1.7500 Gmax 16.5316 1/A FBSC none
REM MP grid 3 4 4 Offset 0.000 0.000 0.000 No. kpts 24 Spacing 0.07
REM Total runtime: 9180.78 s
REM Overall efficiency: 79.8462 %
REM
REM
REM
REM compiler GCC version 4.9.2
REM options -cpp -iprefix /lustre/shared/ucl/apps/gcc/4.9.2/bin/../lib/gcc/x86_64-unknown-linux-gnu/4.9.2/ -mtune=corei7 -march=x86-64 -g -Og
REM COMMAND_LINE
REM seed -934916463 1018350762 1962555793 707941497 -299607486 -1656222068 1994692870 -639030841 643133492 -1874193789 740317404 -1726901504
REM
REM S 3|1.8|5|6|7|30:31:32(qc=5)
REM O 2|1.5|12|13|15|20:21(qc=5)
REM Li 1|1.3|8|9|10|10U:20(qc=5)
REM Fe 3|2.2|2.0|1.0|8|9|10|40:41:32(qc=5)
REM Fe d:4.0 
REM
CELL 1.54180    7.00285    6.10211    7.60870  128.92376  117.39913   90.00001
LATT -1
SFAC Li O  S  Fe 
Li     1  0.4289890000000 -0.3601020000000  0.0077250000000 1.0  -0.01
Li     1 -0.4212630000000  0.1398980000000  0.0077250000000 1.0  -0.01
Li     1 -0.2108930000000 -0.2199130000000  0.4985270000000 1.0  -0.03
Li     1 -0.2905800000000  0.2800870000000  0.4985270000000 1.0  -0.03
O      2 -0.3242880000000 -0.4698510000000  0.1343580000000 1.0   0.13
O      2  0.4586470000000  0.0301490000000  0.1343580000000 1.0   0.13
S      3 -0.2064860000000 -0.1877490000000 -0.1322890000000 1.0   0.10
S      3  0.0741970000000  0.3122510000000 -0.1322890000000 1.0   0.10
Fe     4 -0.1385110000000 -0.4302200000000  0.0346940000000 1.0   3.81
Fe     4  0.1732050000000  0.0697800000000  0.0346940000000 1.0   3.81
END
