TITL LFSO-Li3FeS2O-201023-004332-2b63e2 -0.0669 269.809604 -5.01349759E+003 8.03415 8.25581 14 (P3) n - 1
REM
REM Run started: Fri, 23 Oct 2020 03:29:44 +0100 in /lustre/scratch/uccabz1/launch_tmp/launcher_2020-10-22-23-43-30-890219
REM CASTEP 20.1 from code version af48c487+ pr-geom-scf-spinfix Tue Jun 2 15:39:59 2020 +0100
REM Functional Perdew Burke Ernzerhof Relativity Koelling-Harmon Dispersion off
REM Cut-off 340.0000 eV Grid scale 1.7500 Gmax 16.5316 1/A FBSC none
REM MP grid 3 3 3 Offset 0.000 0.000 0.000 No. kpts 8 Spacing 0.07
REM Total runtime: 10707.1 s
REM Overall efficiency: 96 %
REM
REM
REM
REM compiler GCC version 4.9.2
REM options -cpp -iprefix /lustre/shared/ucl/apps/gcc/4.9.2/bin/../lib/gcc/x86_64-unknown-linux-gnu/4.9.2/ -mtune=corei7 -march=x86-64 -g -Og
REM COMMAND_LINE
REM seed 2029885759 288993192 -491120650 -1703477236 -1599131458 -339974566 64361145 988514616 -1448366967 -854617187 -524447090 -1051729321
REM
REM S 3|1.8|5|6|7|30:31:32(qc=5)
REM O 2|1.5|12|13|15|20:21(qc=5)
REM Li 1|1.3|8|9|10|10U:20(qc=5)
REM Fe 3|2.2|2.0|1.0|8|9|10|40:41:32(qc=5)
REM Fe d:4.0 
REM
CELL 1.54180    6.73015    6.73015    6.87824   90.00000   90.00000  120.00000
LATT -1
SFAC Li O  S  Fe 
Li     1 -0.0019230000000  0.4191770000000  0.0855030000000 1.0  -0.01
Li     1 -0.4191770000000 -0.4211000000000  0.0855030000000 1.0  -0.01
Li     1  0.4211000000000  0.0019230000000  0.0855030000000 1.0  -0.01
Li     1  0.0540890000000 -0.3627240000000 -0.3313240000000 1.0  -0.03
Li     1  0.3627240000000  0.4168130000000 -0.3313240000000 1.0  -0.03
Li     1 -0.4168130000000 -0.0540890000000 -0.3313240000000 1.0  -0.03
O      2  0.3333330000000 -0.3333330000000 -0.3830830000000 1.0   0.09
O      2  0.3333330000000 -0.3333330000000  0.0786800000000 1.0   0.14
S      3  0.3207170000000  0.3034120000000  0.3331420000000 1.0   0.17
S      3 -0.3034120000000  0.0173050000000  0.3331420000000 1.0   0.17
S      3 -0.0173050000000 -0.3207170000000  0.3331420000000 1.0   0.17
S      3 -0.3333330000000  0.3333330000000 -0.1731870000000 1.0   0.03
Fe     4 -0.3333330000000  0.3333330000000  0.4551440000000 1.0   3.90
Fe     4  0.3333330000000 -0.3333330000000  0.3458610000000 1.0   3.50
END
