TITL LFSO-LiFe3S4O-201028-110519-5113de 0.0615 188.026473 -4.43749599E+003 9.00000 10.9126 9 (P3) n - 1
REM
REM Run started: Wed, 28 Oct 2020 12:21:08 +0000 in /lustre/scratch/uccabz1/launch_tmp/launcher_2020-10-28-11-05-02-438041
REM CASTEP 20.1 from code version af48c487+ pr-geom-scf-spinfix Tue Jun 2 15:39:59 2020 +0100
REM Functional Perdew Burke Ernzerhof Relativity Koelling-Harmon Dispersion off
REM Cut-off 340.0000 eV Grid scale 1.7500 Gmax 16.5316 1/A FBSC none
REM MP grid 3 3 3 Offset 0.000 0.000 0.000 No. kpts 8 Spacing 0.07
REM Total runtime: 5392.19 s
REM Overall efficiency: 81.875 %
REM
REM
REM
REM compiler GCC version 4.9.2
REM options -cpp -iprefix /lustre/shared/ucl/apps/gcc/4.9.2/bin/../lib/gcc/x86_64-unknown-linux-gnu/4.9.2/ -mtune=corei7 -march=x86-64 -g -Og
REM COMMAND_LINE
REM seed -524011360 -494377600 -1415798696 1435048853 -1799966638 291123386 -1009525564 -1009226733 1348158853 841973905 1354910321 1453532180
REM
REM S 3|1.8|5|6|7|30:31:32(qc=5)
REM O 2|1.5|12|13|15|20:21(qc=5)
REM Li 1|1.3|8|9|10|10U:20(qc=5)
REM Fe 3|2.2|2.0|1.0|8|9|10|40:41:32(qc=5)
REM Fe d:4.0 
REM
CELL 1.54180    6.01401    6.00844    6.00844  120.00000   90.00000   90.00000
LATT -1
SFAC Li O  S  Fe 
Li     1 -0.3980880000000  0.3333330000000 -0.3333330000000 1.0   0.03
O      2 -0.0309890000000 -0.3333330000000  0.3333330000000 1.0   0.08
S      3  0.3092180000000 -0.3565600000000 -0.3071890000000 1.0  -0.26
S      3  0.3092180000000  0.0493710000000  0.3565600000000 1.0  -0.26
S      3  0.3092180000000  0.3071890000000 -0.0493710000000 1.0  -0.26
S      3 -0.1322530000000 -0.0000000000000  0.0000000000000 1.0  -0.35
Fe     4  0.1031140000000 -0.0392260000000 -0.3588410000000 1.0   3.34
Fe     4  0.1031140000000 -0.3196150000000  0.0392260000000 1.0   3.34
Fe     4  0.1031140000000  0.3588410000000  0.3196150000000 1.0   3.34
END
