TITL LFSO-Li5FeSO3-201026-074927-97a3e6 -0.0010 390.267596 -6.95541804E+003 6.00001 6.72311 20 (R3) n - 1
REM
REM Run started: Mon, 26 Oct 2020 14:00:04 +0000 in /lustre/scratch/uccabz1/launch_tmp/launcher_2020-10-26-07-49-25-874278
REM CASTEP 20.1 from code version af48c487+ pr-geom-scf-spinfix Tue Jun 2 15:39:59 2020 +0100
REM Functional Perdew Burke Ernzerhof Relativity Koelling-Harmon Dispersion off
REM Cut-off 340.0000 eV Grid scale 1.7500 Gmax 16.5316 1/A FBSC none
REM MP grid 3 3 3 Offset 0.000 0.000 0.000 No. kpts 6 Spacing 0.07
REM Total runtime: 23500.8 s
REM Overall efficiency: 71.5 %
REM
REM
REM
REM compiler GCC version 4.9.2
REM options -cpp -iprefix /lustre/shared/ucl/apps/gcc/4.9.2/bin/../lib/gcc/x86_64-unknown-linux-gnu/4.9.2/ -mtune=corei7 -march=x86-64 -g -Og
REM COMMAND_LINE
REM seed -416925670 -1876677941 -1139198224 227003026 -588340918 922849187 53414351 460727361 -1077487286 -153208210 2144601757 -422255817
REM
REM S 3|1.8|5|6|7|30:31:32(qc=5)
REM O 2|1.5|12|13|15|20:21(qc=5)
REM Li 1|1.3|8|9|10|10U:20(qc=5)
REM Fe 3|2.2|2.0|1.0|8|9|10|40:41:32(qc=5)
REM Fe d:4.0 
REM
CELL 1.54180    8.56159    8.56159    8.56159   54.82288   54.82288   54.82288
LATT -1
SFAC Li O  S  Fe 
Li     1 -0.1710750000000  0.2043290000000  0.3488470000000 1.0   0.01
Li     1  0.3488470000000 -0.1710750000000  0.2043290000000 1.0   0.01
Li     1  0.2043290000000  0.3488470000000 -0.1710750000000 1.0   0.01
Li     1  0.3754510000000 -0.0465760000000 -0.1995250000000 1.0  -0.01
Li     1 -0.1995250000000  0.3754510000000 -0.0465760000000 1.0  -0.01
Li     1 -0.0465760000000 -0.1995250000000  0.3754510000000 1.0  -0.01
Li     1  0.1422990000000 -0.1392700000000 -0.4277400000000 1.0  -0.03
Li     1 -0.4277400000000  0.1422990000000 -0.1392700000000 1.0  -0.03
Li     1 -0.1392700000000 -0.4277400000000  0.1422990000000 1.0  -0.03
Li     1  0.1337780000000  0.1337780000000  0.1337780000000 1.0   0.00
O      2 -0.0797140000000 -0.2508520000000  0.1740270000000 1.0  -0.01
O      2  0.1740270000000 -0.0797140000000 -0.2508520000000 1.0  -0.01
O      2 -0.2508520000000  0.1740270000000 -0.0797140000000 1.0  -0.01
O      2  0.0619830000000 -0.0622270000000  0.3750720000000 1.0   0.01
O      2  0.3750720000000  0.0619830000000 -0.0622270000000 1.0   0.01
O      2 -0.0622270000000  0.3750720000000  0.0619830000000 1.0   0.01
S      3  0.4974600000000  0.4974600000000  0.4974600000000 1.0   0.05
S      3 -0.3001300000000 -0.3001300000000 -0.3001300000000 1.0   0.05
Fe     4 -0.0511190000000 -0.0511190000000 -0.0511190000000 1.0   2.07
Fe     4 -0.4003470000000 -0.4003470000000 -0.4003470000000 1.0   3.92
END
