TITL LFSO-Li2Fe2S2O-201022-062839-143086 0.0029 155.687341 -3.16734814E+003 7.99654 8.19051 7 (Immm) n - 1
REM
REM Run started: Thu, 22 Oct 2020 06:46:13 +0100 in /scratch/scratch/uccabz1/launch_tmp/launcher_2020-10-22-05-28-37-412473
REM CASTEP 19.11| from code version Version unavailable
REM Functional Perdew Burke Ernzerhof Relativity Koelling-Harmon Dispersion off
REM Cut-off 340.0000 eV Grid scale 1.7500 Gmax 16.5316 1/A FBSC none
REM MP grid 3 4 3 Offset 0.000 0.000 0.000 No. kpts 12 Spacing 0.07
REM Total runtime: 1408.69 s
REM Overall efficiency: 75.6667 %
REM
REM
REM
REM compiler GCC version 4.9.2
REM options -cpp -iprefix /scratch/UCL/applications/gcc/4.9.2/bin/../lib/gcc/x86_64-unknown-linux-gnu/4.9.2/ -mtune=corei7 -march=x86-64 -g -O2
REM COMMAND_LINE
REM seed -833999060 -728516677 -894544123 670229389 1138030710 904166128 -307612561 23155785 90220692 -908870863 -308516092 -1680202537
REM
REM S 3|1.8|5|6|7|30:31:32(qc=5)
REM O 2|1.5|12|13|15|20:21(qc=5)
REM Li 1|1.3|8|9|10|10U:20(qc=5)
REM Fe 3|2.2|2.0|1.0|8|9|10|40:41:32(qc=5)
REM Fe d:4.0 
REM
CELL 1.54180    5.72028    4.52583    7.03314  108.76884  113.99559   90.00000
LATT -1
SFAC Li O  S  Fe 
Li     1  0.3628000000000 -0.1372000000000 -0.2744010000000 1.0  -0.07
Li     1 -0.3628000000000  0.1372000000000  0.2744010000000 1.0  -0.07
O      2  0.0000000000000  0.0000000000000  0.0000000000000 1.0   0.19
S      3  0.3391320000000  0.3391320000000 -0.3217360000000 1.0   0.09
S      3 -0.3391320000000 -0.3391320000000  0.3217360000000 1.0   0.09
Fe     4  0.1511420000000  0.1511420000000  0.3022830000000 1.0   3.89
Fe     4 -0.1511420000000 -0.1511420000000 -0.3022830000000 1.0   3.89
END
