TITL LFSO-Li4Fe3S4O-201028-204607-eb4949 -0.0676 494.272731 -10077.16620203 22.0000 22.5713 24 (P-1) n - 1
REM
REM Run started: Fri, 30 Oct 2020 22:25:00 +0000 in /lustre/scratch/uccabz1/launch_tmp/launcher_2020-10-29-00-33-20-357149
REM CASTEP 20.1 from code version af48c487+ pr-geom-scf-spinfix Tue Jun 2 15:39:59 2020 +0100
REM Functional Perdew Burke Ernzerhof Relativity Koelling-Harmon Dispersion off
REM Cut-off 340.0000 eV Grid scale 1.7500 Gmax 16.5316 1/A FBSC none
REM MP grid 4 3 2 Offset 0.000 0.000 0.000 No. kpts 12 Spacing 0.07
REM Total runtime: 157950 s
REM Overall efficiency: 76.4286 %
REM
REM
REM
REM compiler GCC version 4.9.2
REM options -cpp -iprefix /lustre/shared/ucl/apps/gcc/4.9.2/bin/../lib/gcc/x86_64-unknown-linux-gnu/4.9.2/ -mtune=corei7 -march=x86-64 -g -Og
REM COMMAND_LINE
REM seed -1170983875 -828545296 675394510 -166691679 -1615974435 1518716957 -1849699625 693215472 -2102925961 2008501784 2034259572 1005764229
REM
REM S 3|1.8|5|6|7|30:31:32(qc=5)
REM O 2|1.5|12|13|15|20:21(qc=5)
REM Li 1|1.3|8|9|10|10U:20(qc=5)
REM Fe 3|2.2|2.0|1.0|8|9|10|40:41:32(qc=5)
REM Fe d:4.0 
REM
CELL 1.54180    8.09325   11.46905   11.30729   55.39994   72.27019   36.89134
LATT -1
SFAC Li O  S  Fe 
Li     1 -0.0679540000000 -0.6306490000000  0.3010230000000 1.0  -0.03
Li     1  0.0679540000000  0.6306490000000 -0.3010230000000 1.0  -0.03
Li     1  0.3760500000000 -0.2955660000000  0.3849570000000 1.0  -0.01
Li     1 -0.3760500000000  0.2955660000000 -0.3849570000000 1.0  -0.01
Li     1 -0.2139160000000  0.1278820000000  0.3409770000000 1.0  -0.01
Li     1  0.2139160000000 -0.1278820000000 -0.3409770000000 1.0  -0.01
Li     1 -0.2832680000000 -0.0534730000000 -0.1507990000000 1.0  -0.02
Li     1  0.2832680000000  0.0534730000000  0.1507990000000 1.0  -0.02
O      2  0.4994190000000 -0.4239350000000 -0.1517050000000 1.0   0.17
O      2 -0.4994190000000  0.4239350000000  0.1517050000000 1.0   0.17
S      3 -0.0376550000000  0.3090800000000  0.5706570000000 1.0   0.06
S      3  0.0376550000000 -0.3090800000000 -0.5706570000000 1.0   0.06
S      3 -0.2336880000000  0.0303180000000 -0.4004950000000 1.0   0.04
S      3  0.2336880000000 -0.0303180000000  0.4004950000000 1.0   0.04
S      3  0.1762290000000  0.3553640000000  0.0999340000000 1.0   0.05
S      3 -0.1762290000000 -0.3553640000000 -0.0999340000000 1.0   0.05
S      3 -0.4122040000000  0.2475230000000 -0.1526260000000 1.0   0.13
S      3  0.4122040000000 -0.2475230000000  0.1526260000000 1.0   0.13
Fe     4 -0.2731200000000 -0.3094780000000  0.4640730000000 1.0   3.27
Fe     4  0.2731200000000  0.3094780000000 -0.4640730000000 1.0   3.27
Fe     4  0.2773980000000 -0.4092020000000  0.2545680000000 1.0   3.56
Fe     4 -0.2773980000000  0.4092020000000 -0.2545680000000 1.0   3.56
Fe     4 -0.5453610000000  0.3931580000000  0.0050210000000 1.0   3.79
Fe     4  0.5453610000000 -0.3931580000000 -0.0050210000000 1.0   3.79
END
