TITL LFSO-Li2Fe4S3O2-201025-084612-c50406 -0.0411 495.248291 -1.12677472E+004 -15.9999 30.9251 22 (R3) n - 1
REM
REM Run started: Sun, 25 Oct 2020 12:57:16 +0000 in /scratch/scratch/uccabz1/launch_tmp/launcher_2020-10-25-08-46-10-632732
REM CASTEP 19.11| from code version Version unavailable
REM Functional Perdew Burke Ernzerhof Relativity Koelling-Harmon Dispersion off
REM Cut-off 340.0000 eV Grid scale 1.7500 Gmax 16.5316 1/A FBSC none
REM MP grid 2 2 2 Offset 0.000 0.000 0.000 No. kpts 2 Spacing 0.07
REM Total runtime: 15379.8 s
REM Overall efficiency: 71.2222 %
REM
REM
REM
REM compiler GCC version 4.9.2
REM options -cpp -iprefix /scratch/UCL/applications/gcc/4.9.2/bin/../lib/gcc/x86_64-unknown-linux-gnu/4.9.2/ -mtune=corei7 -march=x86-64 -g -O2
REM COMMAND_LINE
REM seed -1486359241 -412366989 2918951 -496800862 523650699 -1949871799 219079304 1334973959 897927288 -318152209 1088014907 1209089498
REM
REM S 3|1.8|5|6|7|30:31:32(qc=5)
REM O 2|1.5|12|13|15|20:21(qc=5)
REM Li 1|1.3|8|9|10|10U:20(qc=5)
REM Fe 3|2.2|2.0|1.0|8|9|10|40:41:32(qc=5)
REM Fe d:4.0 
REM
CELL 1.54180    7.94871    7.94871    7.94871   84.30875   84.30875   84.30875
LATT -1
SFAC Li O  S  Fe 
Li     1  0.2171460000000 -0.0995930000000  0.0279900000000 1.0   0.01
Li     1 -0.0995930000000  0.0279900000000  0.2171460000000 1.0   0.01
Li     1  0.0279900000000  0.2171460000000 -0.0995930000000 1.0   0.01
Li     1  0.4559800000000  0.4559800000000  0.4559800000000 1.0   0.11
O      2  0.3181660000000  0.0449410000000  0.3864450000000 1.0  -0.14
O      2  0.0449410000000  0.3864450000000  0.3181660000000 1.0  -0.14
O      2  0.3864450000000  0.3181660000000  0.0449410000000 1.0  -0.14
O      2  0.0135320000000  0.0135320000000  0.0135320000000 1.0  -0.03
S      3 -0.2546940000000 -0.3163420000000  0.0898250000000 1.0   0.01
S      3 -0.3163420000000  0.0898250000000 -0.2546940000000 1.0   0.01
S      3  0.0898250000000 -0.2546940000000 -0.3163420000000 1.0   0.01
S      3  0.2822130000000 -0.3263020000000  0.2380340000000 1.0  -0.13
S      3 -0.3263020000000  0.2380340000000  0.2822130000000 1.0  -0.13
S      3  0.2380340000000  0.2822130000000 -0.3263020000000 1.0  -0.13
Fe     4  0.1672270000000  0.0140910000000 -0.4118690000000 1.0  -3.81
Fe     4  0.0140910000000 -0.4118690000000  0.1672270000000 1.0  -3.81
Fe     4 -0.4118690000000  0.1672270000000  0.0140910000000 1.0  -3.81
Fe     4 -0.4793250000000 -0.5026660000000  0.1085220000000 1.0  -3.79
Fe     4 -0.5026660000000  0.1085220000000 -0.4793250000000 1.0  -3.79
Fe     4  0.1085220000000 -0.4793250000000 -0.5026660000000 1.0  -3.79
Fe     4  0.2436560000000  0.2436560000000  0.2436560000000 1.0   3.71
Fe     4 -0.1294940000000 -0.1294940000000 -0.1294940000000 1.0   3.77
END
