TITL LFSO-Li3FeS2O-201024-140547-e972c2 -0.0062 391.228893 -7.51839612E+003 11.0593 11.5202 21 (P2/m) n - 1
REM
REM Run started: Sat, 24 Oct 2020 23:36:50 +0100 in /lustre/scratch/uccabz1/launch_tmp/launcher_2020-10-24-13-05-45-441262
REM CASTEP 20.1 from code version af48c487+ pr-geom-scf-spinfix Tue Jun 2 15:39:59 2020 +0100
REM Functional Perdew Burke Ernzerhof Relativity Koelling-Harmon Dispersion off
REM Cut-off 340.0000 eV Grid scale 1.7500 Gmax 16.5316 1/A FBSC none
REM MP grid 4 2 2 Offset 0.000 0.000 0.000 No. kpts 4 Spacing 0.07
REM Total runtime: 34928.1 s
REM Overall efficiency: 78.6364 %
REM
REM
REM
REM compiler GCC version 4.9.2
REM options -cpp -iprefix /lustre/shared/ucl/apps/gcc/4.9.2/bin/../lib/gcc/x86_64-unknown-linux-gnu/4.9.2/ -mtune=corei7 -march=x86-64 -g -Og
REM COMMAND_LINE
REM seed 17034220 1074657156 279406061 -443625468 -272481514 -597548663 -188413243 -180964625 1789539203 -121571840 1312125216 -1829324599
REM
REM S 3|1.8|5|6|7|30:31:32(qc=5)
REM O 2|1.5|12|13|15|20:21(qc=5)
REM Li 1|1.3|8|9|10|10U:20(qc=5)
REM Fe 3|2.2|2.0|1.0|8|9|10|40:41:32(qc=5)
REM Fe d:4.0 
REM
CELL 1.54180    3.84766    8.42164   12.08523   90.00000   90.00000   87.48988
LATT -1
SFAC Li O  S  Fe 
Li     1 -0.2115470000000  0.1784850000000  0.1167300000000 1.0  -0.01
Li     1  0.2115470000000 -0.1784850000000  0.1167300000000 1.0  -0.01
Li     1  0.2115470000000 -0.1784850000000 -0.1167300000000 1.0  -0.01
Li     1 -0.2115470000000  0.1784850000000 -0.1167300000000 1.0  -0.01
Li     1 -0.4772160000000 -0.2800240000000 -0.3159710000000 1.0  -0.05
Li     1  0.4772160000000  0.2800240000000 -0.3159710000000 1.0  -0.05
Li     1  0.4772160000000  0.2800240000000  0.3159710000000 1.0  -0.05
Li     1 -0.4772160000000 -0.2800240000000  0.3159710000000 1.0  -0.05
Li     1 -0.0000000000000  0.0000000000000 -0.5000000000000 1.0   0.00
O      2  0.5000000000000  0.5000000000000 -0.2971090000000 1.0   0.13
O      2 -0.5000000000000 -0.5000000000000  0.2971090000000 1.0   0.13
O      2 -0.0000000000000 -0.5000000000000 -0.5000000000000 1.0   0.32
S      3 -0.0142570000000  0.1295830000000 -0.3131730000000 1.0  -0.01
S      3  0.0142570000000 -0.1295830000000 -0.3131730000000 1.0  -0.01
S      3  0.0142570000000 -0.1295830000000  0.3131730000000 1.0  -0.01
S      3 -0.0142570000000  0.1295830000000  0.3131730000000 1.0  -0.01
S      3  0.2618910000000  0.2415510000000  0.0000000000000 1.0  -0.02
S      3 -0.2618910000000 -0.2415510000000  0.0000000000000 1.0  -0.02
Fe     4 -0.0000000000000  0.5000000000000 -0.3434300000000 1.0   3.82
Fe     4 -0.0000000000000 -0.5000000000000  0.3434300000000 1.0   3.82
Fe     4 -0.0000000000000  0.5000000000000  0.0000000000000 1.0   3.19
END
