TITL LFSO-Li6FeS3O-201027-122203-36cd84 0.1834 696.389219 -6.81589328E+003 6.75810 7.36763 22 (Pmm2) n - 1
REM
REM Run started: Tue, 27 Oct 2020 23:10:45 +0000 in /lustre/scratch/uccabz1/launch_tmp/launcher_2020-10-27-12-22-01-936886
REM CASTEP 20.1 from code version af48c487+ pr-geom-scf-spinfix Tue Jun 2 15:39:59 2020 +0100
REM Functional Perdew Burke Ernzerhof Relativity Koelling-Harmon Dispersion off
REM Cut-off 340.0000 eV Grid scale 1.7500 Gmax 16.5316 1/A FBSC none
REM MP grid 3 3 1 Offset 0.000 0.000 0.000 No. kpts 4 Spacing 0.07
REM Total runtime: 46341 s
REM Overall efficiency: 76.9231 %
REM
REM
REM
REM compiler GCC version 4.9.2
REM options -cpp -iprefix /lustre/shared/ucl/apps/gcc/4.9.2/bin/../lib/gcc/x86_64-unknown-linux-gnu/4.9.2/ -mtune=corei7 -march=x86-64 -g -Og
REM COMMAND_LINE
REM seed 1215803422 564803588 -999813050 -1775348027 -508424603 -1084895571 1797918366 -2079723101 597949391 665363029 1902707446 2014831602
REM
REM S 3|1.8|5|6|7|30:31:32(qc=5)
REM O 2|1.5|12|13|15|20:21(qc=5)
REM Li 1|1.3|8|9|10|10U:20(qc=5)
REM Fe 3|2.2|2.0|1.0|8|9|10|40:41:32(qc=5)
REM Fe d:4.0 
REM
CELL 1.54180    6.88719    6.54343   15.45269   90.00000   90.00000   90.00000
LATT -1
SFAC Li O  S  Fe 
Li     1  0.4379570000000  0.2200230000000  0.3298010000000 1.0  -0.01
Li     1  0.4379570000000 -0.2200230000000 -0.3298010000000 1.0  -0.01
Li     1  0.4379570000000 -0.2200230000000  0.3298010000000 1.0  -0.01
Li     1  0.4379570000000  0.2200230000000 -0.3298010000000 1.0  -0.01
Li     1  0.3451150000000 -0.2055280000000 -0.1843920000000 1.0  -0.03
Li     1  0.3451150000000  0.2055280000000  0.1843920000000 1.0  -0.03
Li     1  0.3451150000000  0.2055280000000 -0.1843920000000 1.0  -0.03
Li     1  0.3451150000000 -0.2055280000000  0.1843920000000 1.0  -0.03
Li     1  0.0648890000000  0.2134200000000  0.2872530000000 1.0  -0.00
Li     1  0.0648890000000 -0.2134200000000 -0.2872530000000 1.0  -0.00
Li     1  0.0648890000000 -0.2134200000000  0.2872530000000 1.0  -0.00
Li     1  0.0648890000000  0.2134200000000 -0.2872530000000 1.0  -0.00
O      2  0.2807250000000  0.0000000000000  0.2595280000000 1.0   0.00
O      2  0.2807250000000  0.0000000000000 -0.2595280000000 1.0   0.00
S      3 -0.2340320000000  0.2458800000000 -0.3579650000000 1.0   0.03
S      3 -0.2340320000000 -0.2458800000000  0.3579650000000 1.0   0.03
S      3 -0.2340320000000 -0.2458800000000 -0.3579650000000 1.0   0.03
S      3 -0.2340320000000  0.2458800000000  0.3579650000000 1.0   0.03
S      3  0.2655900000000 -0.5000000000000 -0.2445260000000 1.0   0.00
S      3  0.2655900000000 -0.5000000000000  0.2445260000000 1.0   0.00
Fe     4 -0.2252950000000 -0.2997270000000 -0.5000000000000 1.0   3.40
Fe     4 -0.2252950000000  0.2997270000000 -0.5000000000000 1.0   3.40
END
