TITL LFSO-LiFe3S4O-201028-112908-66054b 0.0247 223.802030 -4.43790340E+003 9.00000 11.0828 9 (R3) n - 1
REM
REM Run started: Wed, 28 Oct 2020 13:19:40 +0000 in /scratch/scratch/uccabz1/launch_tmp/launcher_2020-10-28-11-29-06-629747
REM CASTEP 19.11| from code version Version unavailable
REM Functional Perdew Burke Ernzerhof Relativity Koelling-Harmon Dispersion off
REM Cut-off 340.0000 eV Grid scale 1.7500 Gmax 16.5316 1/A FBSC none
REM MP grid 3 3 3 Offset 0.000 0.000 0.000 No. kpts 6 Spacing 0.07
REM Total runtime: 6744.31 s
REM Overall efficiency: 95.4286 %
REM
REM
REM
REM compiler GCC version 4.9.2
REM options -cpp -iprefix /scratch/UCL/applications/gcc/4.9.2/bin/../lib/gcc/x86_64-unknown-linux-gnu/4.9.2/ -mtune=corei7 -march=x86-64 -g -O2
REM COMMAND_LINE
REM seed 1293898651 40073354 1507474675 1571715849 1219583230 -1963390789 1949897972 439914192 -1110435769 -1731907771 1631614434 1805191691
REM
REM S 3|1.8|5|6|7|30:31:32(qc=5)
REM O 2|1.5|12|13|15|20:21(qc=5)
REM Li 1|1.3|8|9|10|10U:20(qc=5)
REM Fe 3|2.2|2.0|1.0|8|9|10|40:41:32(qc=5)
REM Fe d:4.0 
REM
CELL 1.54180    8.00213    8.00213    8.00213   43.90912   43.90912   43.90912
LATT -1
SFAC Li O  S  Fe 
Li     1 -0.2816080000000 -0.2816080000000 -0.2816080000000 1.0   0.03
O      2  0.2017380000000  0.2017380000000  0.2017380000000 1.0   0.05
S      3  0.3208780000000 -0.3447100000000 -0.0882990000000 1.0  -0.33
S      3 -0.0882990000000  0.3208780000000 -0.3447100000000 1.0  -0.33
S      3 -0.3447100000000 -0.0882990000000  0.3208780000000 1.0  -0.33
S      3 -0.1629010000000 -0.1629010000000 -0.1629010000000 1.0  -0.23
Fe     4  0.2234970000000 -0.0579400000000 -0.4536010000000 1.0   3.38
Fe     4 -0.4536010000000  0.2234970000000 -0.0579400000000 1.0   3.38
Fe     4 -0.0579400000000 -0.4536010000000  0.2234970000000 1.0   3.38
END
