TITL LFSO-Li5FeS2O2-201026-200627-cecb44 -0.0582 164.695346 -3.34516896E+003 3.00098 3.62865 10 (Cm) n - 1
REM
REM Run started: Wed, 28 Oct 2020 02:12:29 +0000 in /lustre/scratch/uccabz1/launch_tmp/launcher_2020-10-28-00-46-42-993986
REM CASTEP 20.1 from code version af48c487+ pr-geom-scf-spinfix Tue Jun 2 15:39:59 2020 +0100
REM Functional Perdew Burke Ernzerhof Relativity Koelling-Harmon Dispersion off
REM Cut-off 340.0000 eV Grid scale 1.7500 Gmax 16.5316 1/A FBSC none
REM MP grid 3 3 3 Offset 0.000 0.000 0.000 No. kpts 10 Spacing 0.07
REM Total runtime: 5201.37 s
REM Overall efficiency: 79.0909 %
REM
REM
REM
REM compiler GCC version 4.9.2
REM options -cpp -iprefix /scratch/UCL/applications/gcc/4.9.2/bin/../lib/gcc/x86_64-unknown-linux-gnu/4.9.2/ -mtune=corei7 -march=x86-64 -g -O2
REM COMMAND_LINE
REM seed -1455154939 1455696814 1166344839 1605108262 -1580161696 811091514 809055815 -1638528891 1741157314 -1603179008 -614579900 925474210
REM
REM S 3|1.8|5|6|7|30:31:32(qc=5)
REM O 2|1.5|12|13|15|20:21(qc=5)
REM Li 1|1.3|8|9|10|10U:20(qc=5)
REM Fe 3|2.2|2.0|1.0|8|9|10|40:41:32(qc=5)
REM Fe d:4.0 
REM
CELL 1.54180    5.89392    5.89392    5.77164   81.83111   81.83111  120.92507
LATT -1
SFAC Li O  S  Fe 
Li     1  0.1212900000000  0.5636740000000 -0.2928900000000 1.0   0.02
Li     1  0.5636740000000  0.1212900000000 -0.2928900000000 1.0   0.02
Li     1 -0.2447190000000  0.2788640000000  0.1373110000000 1.0  -0.03
Li     1  0.2788640000000 -0.2447190000000  0.1373110000000 1.0  -0.03
Li     1 -0.0012430000000 -0.0012430000000 -0.3547830000000 1.0  -0.03
O      2 -0.1179560000000  0.1648000000000 -0.1233090000000 1.0   0.04
O      2  0.1648000000000 -0.1179560000000 -0.1233090000000 1.0   0.04
S      3 -1.1370080000000  0.5684980000000  0.4038600000000 1.0  -0.12
S      3 -0.4315020000000 -0.1370080000000  0.4038600000000 1.0  -0.12
Fe     4 -0.0980640000000 -0.0980640000000  0.1059000000000 1.0   3.21
END
