TITL LFSO-Li6FeSO3-201028-034329-7d0d1e 0.0224 347.889674 -7.35600165E+003 8.00000 8.16464 22 (P3) n - 1
REM
REM Run started: Wed, 28 Oct 2020 11:59:31 +0000 in /scratch/scratch/uccabz1/launch_tmp/launcher_2020-10-28-03-43-28-051468
REM CASTEP 19.11| from code version Version unavailable
REM Functional Perdew Burke Ernzerhof Relativity Koelling-Harmon Dispersion off
REM Cut-off 340.0000 eV Grid scale 1.7500 Gmax 16.5316 1/A FBSC none
REM MP grid 2 3 3 Offset 0.000 0.000 0.000 No. kpts 5 Spacing 0.07
REM Total runtime: 30734.3 s
REM Overall efficiency: 81.3333 %
REM
REM
REM
REM compiler GCC version 4.9.2
REM options -cpp -iprefix /scratch/UCL/applications/gcc/4.9.2/bin/../lib/gcc/x86_64-unknown-linux-gnu/4.9.2/ -mtune=corei7 -march=x86-64 -g -O2
REM COMMAND_LINE
REM seed 1656827961 -1060547644 -1695435608 -662848146 -440325208 -1716618603 -1957258895 37257204 -2084505954 199103979 -1067644404 1873671276
REM
REM S 3|1.8|5|6|7|30:31:32(qc=5)
REM O 2|1.5|12|13|15|20:21(qc=5)
REM Li 1|1.3|8|9|10|10U:20(qc=5)
REM Fe 3|2.2|2.0|1.0|8|9|10|40:41:32(qc=5)
REM Fe d:4.0 
REM
CELL 1.54180    7.51088    7.31324    7.31324  120.00000   90.00000   90.00000
LATT -1
SFAC Li O  S  Fe 
Li     1  0.2244110000000  0.4569950000000  0.5531000000000 1.0  -0.01
Li     1  0.2244110000000 -0.5531000000000 -0.0961050000000 1.0  -0.01
Li     1  0.2244110000000  0.0961050000000 -0.4569950000000 1.0  -0.01
Li     1  0.2924050000000 -0.1273440000000 -0.2340820000000 1.0  -0.01
Li     1  0.2924050000000  0.2340820000000  0.1067380000000 1.0  -0.01
Li     1  0.2924050000000 -0.1067380000000  0.1273440000000 1.0  -0.01
Li     1 -0.4589720000000 -0.3725970000000 -0.0990320000000 1.0   0.00
Li     1 -0.4589720000000  0.0990320000000 -0.2735650000000 1.0   0.00
Li     1 -0.4589720000000  0.2735650000000  0.3725970000000 1.0   0.00
Li     1 -0.2644570000000  0.3269960000000  0.1024790000000 1.0  -0.05
Li     1 -0.2644570000000 -0.1024790000000  0.2245170000000 1.0  -0.05
Li     1 -0.2644570000000 -0.2245170000000 -0.3269960000000 1.0  -0.05
O      2 -0.2911280000000 -0.0838070000000  0.4971670000000 1.0   0.12
O      2 -0.2911280000000 -0.4971670000000 -0.5809740000000 1.0   0.12
O      2 -0.2911280000000  0.5809740000000  0.0838070000000 1.0   0.12
O      2  0.2964710000000 -0.3490960000000 -0.1637830000000 1.0   0.01
O      2  0.2964710000000  0.1637830000000 -0.1853130000000 1.0   0.01
O      2  0.2964710000000  0.1853130000000  0.3490960000000 1.0   0.01
S      3  0.2103040000000 -0.3333330000000  0.3333330000000 1.0   0.01
S      3 -0.3673180000000  0.0000000000000 -0.0000000000000 1.0   0.02
Fe     4 -0.4641050000000 -0.3333330000000  0.3333330000000 1.0   3.88
Fe     4 -0.1099800000000 -0.3333330000000  0.3333330000000 1.0   3.91
END
