TITL LFSO-Li3FeS2O-201025-072746-538ba3 0.0078 106.841622 -2.50537510E+003 3.21236 3.42923 7 (P2) n - 1
REM
REM Run started: Sun, 25 Oct 2020 07:56:41 +0000 in /lustre/scratch/uccabz1/launch_tmp/launcher_2020-10-25-07-27-44-416818
REM CASTEP 20.1 from code version af48c487+ pr-geom-scf-spinfix Tue Jun 2 15:39:59 2020 +0100
REM Functional Perdew Burke Ernzerhof Relativity Koelling-Harmon Dispersion off
REM Cut-off 340.0000 eV Grid scale 1.7500 Gmax 16.5316 1/A FBSC none
REM MP grid 4 4 3 Offset 0.000 0.000 0.000 No. kpts 16 Spacing 0.07
REM Total runtime: 2029.27 s
REM Overall efficiency: 88.8571 %
REM
REM
REM
REM compiler GCC version 4.9.2
REM options -cpp -iprefix /lustre/shared/ucl/apps/gcc/4.9.2/bin/../lib/gcc/x86_64-unknown-linux-gnu/4.9.2/ -mtune=corei7 -march=x86-64 -g -Og
REM COMMAND_LINE
REM seed -1079465065 1953862396 -1334954366 2060346040 1289826572 1856154304 -551604300 -667896439 1067334907 -1086514728 -2049731949 1294412899
REM
REM S 3|1.8|5|6|7|30:31:32(qc=5)
REM O 2|1.5|12|13|15|20:21(qc=5)
REM Li 1|1.3|8|9|10|10U:20(qc=5)
REM Fe 3|2.2|2.0|1.0|8|9|10|40:41:32(qc=5)
REM Fe d:4.0 
REM
CELL 1.54180    3.59982    4.91142    6.06849   90.00000   90.00000   84.74611
LATT -1
SFAC Li O  S  Fe 
Li     1  0.3764900000000  0.2380710000000  0.1709530000000 1.0  -0.03
Li     1 -0.3764900000000 -0.2380710000000  0.1709530000000 1.0  -0.03
Li     1  0.0000000000000  0.0000000000000 -0.2031280000000 1.0  -0.04
O      2  0.5000000000000  0.0000000000000 -0.0722040000000 1.0   0.01
S      3  0.0975680000000 -0.2950040000000  0.4412140000000 1.0  -0.01
S      3 -0.0975680000000  0.2950040000000  0.4412140000000 1.0  -0.01
Fe     4  0.5000000000000 -0.5000000000000 -0.2374650000000 1.0   3.32
END
