TITL LFSO-Li4Fe2S3O-201026-064849-6b1564 -0.0325 479.138643 -7.74603277E+003 16.0000 16.3542 20 (C2221) n - 1
REM
REM Run started: Mon, 26 Oct 2020 09:51:00 +0000 in /lustre/scratch/uccabz1/launch_tmp/launcher_2020-10-26-06-48-48-156782
REM CASTEP 20.1 from code version af48c487+ pr-geom-scf-spinfix Tue Jun 2 15:39:59 2020 +0100
REM Functional Perdew Burke Ernzerhof Relativity Koelling-Harmon Dispersion off
REM Cut-off 340.0000 eV Grid scale 1.7500 Gmax 16.5316 1/A FBSC none
REM MP grid 3 3 2 Offset 0.000 0.000 0.000 No. kpts 4 Spacing 0.07
REM Total runtime: 11698.9 s
REM Overall efficiency: 77.5714 %
REM
REM
REM
REM compiler GCC version 4.9.2
REM options -cpp -iprefix /lustre/shared/ucl/apps/gcc/4.9.2/bin/../lib/gcc/x86_64-unknown-linux-gnu/4.9.2/ -mtune=corei7 -march=x86-64 -g -Og
REM COMMAND_LINE
REM seed 233419296 -526201672 -543025799 626821845 508545698 -1296091073 396873631 1684361087 -16320421 309127504 1811571377 396499655
REM
REM S 3|1.8|5|6|7|30:31:32(qc=5)
REM O 2|1.5|12|13|15|20:21(qc=5)
REM Li 1|1.3|8|9|10|10U:20(qc=5)
REM Fe 3|2.2|2.0|1.0|8|9|10|40:41:32(qc=5)
REM Fe d:4.0 
REM
CELL 1.54180    6.80043    6.80043   12.76147   90.00000   90.00000  125.72065
LATT -1
SFAC Li O  S  Fe 
Li     1  0.2494860000000  0.2484730000000  0.2409940000000 1.0  -0.00
Li     1 -0.2494860000000 -0.2484730000000 -0.2590060000000 1.0  -0.00
Li     1 -0.2484730000000 -0.2494860000000  0.2590060000000 1.0  -0.00
Li     1  0.2484730000000  0.2494860000000 -0.2409940000000 1.0  -0.00
Li     1  0.2204560000000  0.0286800000000 -0.4239800000000 1.0  -0.01
Li     1 -0.2204560000000 -0.0286800000000  0.0760200000000 1.0  -0.01
Li     1 -0.0286800000000 -0.2204560000000 -0.0760200000000 1.0  -0.01
Li     1  0.0286800000000  0.2204560000000  0.4239800000000 1.0  -0.01
O      2  0.3923280000000 -0.3923280000000  0.2500000000000 1.0   0.20
O      2 -0.3923280000000  0.3923280000000 -0.2500000000000 1.0   0.20
S      3 -0.0087620000000  0.1998870000000 -0.3924480000000 1.0   0.08
S      3  0.0087620000000 -0.1998870000000  0.1075520000000 1.0   0.08
S      3 -0.1998870000000  0.0087620000000 -0.1075520000000 1.0   0.08
S      3  0.1998870000000 -0.0087620000000  0.3924480000000 1.0   0.08
S      3 -0.1672700000000  0.1672700000000  0.2500000000000 1.0   0.13
S      3  0.1672700000000 -0.1672700000000 -0.2500000000000 1.0   0.13
Fe     4  0.1059740000000 -0.4376250000000  0.1815180000000 1.0   3.77
Fe     4 -0.1059740000000  0.4376250000000 -0.3184820000000 1.0   3.77
Fe     4  0.4376250000000 -0.1059740000000  0.3184820000000 1.0   3.77
Fe     4 -0.4376250000000  0.1059740000000 -0.1815180000000 1.0   3.77
END
