TITL LFSO-Li2Fe4S3O2-201025-104045-ed7d03 0.0317 253.854445 -5.63546699E+003 15.9994 16.1609 11 (C2) n - 1
REM
REM Run started: Sun, 25 Oct 2020 15:58:46 +0000 in /lustre/scratch/uccabz1/launch_tmp/launcher_2020-10-25-10-40-44-251335
REM CASTEP 20.1 from code version af48c487+ pr-geom-scf-spinfix Tue Jun 2 15:39:59 2020 +0100
REM Functional Perdew Burke Ernzerhof Relativity Koelling-Harmon Dispersion off
REM Cut-off 340.0000 eV Grid scale 1.7500 Gmax 16.5316 1/A FBSC none
REM MP grid 3 3 4 Offset 0.000 0.000 0.000 No. kpts 16 Spacing 0.07
REM Total runtime: 22219.4 s
REM Overall efficiency: 84.2308 %
REM
REM
REM
REM compiler GCC version 4.9.2
REM options -cpp -iprefix /lustre/shared/ucl/apps/gcc/4.9.2/bin/../lib/gcc/x86_64-unknown-linux-gnu/4.9.2/ -mtune=corei7 -march=x86-64 -g -Og
REM COMMAND_LINE
REM seed 1702134378 -1659580366 1967013087 768149446 851184579 1569202191 -874011910 1627546701 -1925335990 -332994227 -1030544163 -1927982965
REM
REM S 3|1.8|5|6|7|30:31:32(qc=5)
REM O 2|1.5|12|13|15|20:21(qc=5)
REM Li 1|1.3|8|9|10|10U:20(qc=5)
REM Fe 3|2.2|2.0|1.0|8|9|10|40:41:32(qc=5)
REM Fe d:4.0 
REM
CELL 1.54180    7.13003    8.45238    6.95703  127.51369  120.94327   89.83440
LATT -1
SFAC Li O  S  Fe 
Li     1 -0.5541280000000  0.1851050000000 -0.1007260000000 1.0  -0.03
Li     1  0.4534010000000  0.7141690000000 -0.1007260000000 1.0  -0.03
O      2  0.2183870000000 -0.1036390000000 -0.5315960000000 1.0   0.17
O      2  0.2500170000000 -0.4279570000000 -0.5315960000000 1.0   0.17
S      3 -0.2238670000000  0.0553030000000  0.0570550000000 1.0   0.16
S      3  0.2809220000000  0.0017520000000  0.0570550000000 1.0   0.16
S      3 -0.4221750000000 -0.4221750000000  0.1556510000000 1.0   0.03
Fe     4  0.1190580000000  0.2587860000000  0.1861650000000 1.0   3.78
Fe     4  0.0671070000000 -0.0726210000000  0.1861650000000 1.0   3.78
Fe     4  0.0151620000000 -0.2820310000000  0.4734070000000 1.0   3.91
Fe     4  0.4582450000000 -0.2445620000000  0.4734070000000 1.0   3.91
END
