TITL LFSO-Li2FeSO-201023-091942-1ec1c1 0.1927 674.346973 -8.00843119E+003 13.9999 15.0997 20 (C2/c) n - 1
REM
REM Run started: Sat, 24 Oct 2020 05:46:21 +0100 in /lustre/scratch/uccabz1/launch_tmp/launcher_2020-10-23-08-19-41-125151
REM CASTEP 20.1 from code version af48c487+ pr-geom-scf-spinfix Tue Jun 2 15:39:59 2020 +0100
REM Functional Perdew Burke Ernzerhof Relativity Koelling-Harmon Dispersion off
REM Cut-off 340.0000 eV Grid scale 1.7500 Gmax 16.5316 1/A FBSC none
REM MP grid 4 2 2 Offset 0.000 0.000 0.000 No. kpts 6 Spacing 0.07
REM Total runtime: 89062.2 s
REM Overall efficiency: 95.5833 %
REM
REM
REM
REM compiler GCC version 4.9.2
REM options -cpp -iprefix /lustre/shared/ucl/apps/gcc/4.9.2/bin/../lib/gcc/x86_64-unknown-linux-gnu/4.9.2/ -mtune=corei7 -march=x86-64 -g -Og
REM COMMAND_LINE
REM seed 1379008375 747862069 1826851388 -449516534 -1493545182 1491211689 1646391933 444089899 1605630625 1236378689 923598566 1452443724
REM
REM S 3|1.8|5|6|7|30:31:32(qc=5)
REM O 2|1.5|12|13|15|20:21(qc=5)
REM Li 1|1.3|8|9|10|10U:20(qc=5)
REM Fe 3|2.2|2.0|1.0|8|9|10|40:41:32(qc=5)
REM Fe d:4.0 
REM
CELL 1.54180    3.78770   18.50681   18.50681  148.61858   89.07828   89.07828
LATT -1
SFAC Li O  S  Fe 
Li     1  0.0091580000000  0.0964150000000 -0.2443210000000 1.0  -0.03
Li     1 -0.5091580000000  0.2443210000000 -0.0964150000000 1.0  -0.03
Li     1 -0.0091580000000 -0.0964150000000  0.2443210000000 1.0  -0.03
Li     1  0.5091580000000 -0.2443210000000  0.0964150000000 1.0  -0.03
Li     1  0.0053050000000 -0.3329870000000 -0.0950170000000 1.0  -0.00
Li     1 -0.5053050000000  0.0950170000000  0.3329870000000 1.0  -0.00
Li     1 -0.0053050000000  0.3329870000000  0.0950170000000 1.0  -0.00
Li     1  0.5053050000000 -0.0950170000000 -0.3329870000000 1.0  -0.00
O      2  0.0073880000000 -0.2740670000000  0.0459860000000 1.0   0.42
O      2  0.4926120000000 -0.0459860000000  0.2740670000000 1.0   0.42
O      2 -0.0073880000000  0.2740670000000 -0.0459860000000 1.0   0.42
O      2 -0.4926120000000  0.0459860000000 -0.2740670000000 1.0   0.42
S      3  0.4687560000000 -0.2722840000000 -0.3827640000000 1.0   0.05
S      3  0.0312440000000  0.3827640000000  0.2722840000000 1.0   0.05
S      3 -0.4687560000000  0.2722840000000  0.3827640000000 1.0   0.05
S      3 -0.0312440000000 -0.3827640000000 -0.2722840000000 1.0   0.05
Fe     4  0.5242840000000  0.4005620000000  0.3532730000000 1.0   3.06
Fe     4 -0.0242840000000 -0.3532730000000 -0.4005620000000 1.0   3.06
Fe     4 -0.5242840000000 -0.4005620000000 -0.3532730000000 1.0   3.06
Fe     4  0.0242840000000  0.3532730000000  0.4005620000000 1.0   3.06
END
