TITL LFSO-Li4Fe2S3O-201027-095753-ce8ac8 0.0220 383.194190 -7.74727185E+003 16.0000 16.2065 20 (C2) n - 1
REM
REM Run started: Tue, 27 Oct 2020 21:40:48 +0000 in /lustre/scratch/uccabz1/launch_tmp/launcher_2020-10-27-09-57-51-477032
REM CASTEP 20.1 from code version af48c487+ pr-geom-scf-spinfix Tue Jun 2 15:39:59 2020 +0100
REM Functional Perdew Burke Ernzerhof Relativity Koelling-Harmon Dispersion off
REM Cut-off 340.0000 eV Grid scale 1.7500 Gmax 16.5316 1/A FBSC none
REM MP grid 3 2 3 Offset 0.000 0.000 0.000 No. kpts 6 Spacing 0.07
REM Total runtime: 46319.4 s
REM Overall efficiency: 88 %
REM
REM
REM
REM compiler GCC version 4.9.2
REM options -cpp -iprefix /lustre/shared/ucl/apps/gcc/4.9.2/bin/../lib/gcc/x86_64-unknown-linux-gnu/4.9.2/ -mtune=corei7 -march=x86-64 -g -Og
REM COMMAND_LINE
REM seed -1819264845 1743557313 165382413 970317289 1953358555 1830347121 -828427228 -766184220 -1398998421 -673039202 -2118587816 -1444071123
REM
REM S 3|1.8|5|6|7|30:31:32(qc=5)
REM O 2|1.5|12|13|15|20:21(qc=5)
REM Li 1|1.3|8|9|10|10U:20(qc=5)
REM Fe 3|2.2|2.0|1.0|8|9|10|40:41:32(qc=5)
REM Fe d:4.0 
REM
CELL 1.54180    6.96167    8.97506    7.05918   87.39553  119.54414   90.00000
LATT -1
SFAC Li O  S  Fe 
Li     1  0.3460480000000  0.0115300000000  0.2719750000000 1.0   0.01
Li     1  0.0740730000000 -0.0115300000000 -0.2719750000000 1.0   0.01
Li     1 -0.3964970000000  0.1818240000000  0.1003530000000 1.0  -0.01
Li     1  0.5031500000000 -0.1818240000000 -0.1003530000000 1.0  -0.01
Li     1 -0.3716310000000 -0.4457220000000  0.1800000000000 1.0  -0.01
Li     1  0.4483690000000  0.4457220000000 -0.1800000000000 1.0  -0.01
Li     1 -0.0754710000000 -0.2609460000000  0.3471540000000 1.0  -0.03
Li     1  0.5773750000000  0.2609460000000 -0.3471540000000 1.0  -0.03
O      2 -0.2616780000000 -0.3159120000000  0.0511530000000 1.0   0.14
O      2 -0.3128310000000  0.3159120000000 -0.0511530000000 1.0   0.14
S      3 -0.2764880000000  0.1136340000000 -0.5300510000000 1.0   0.09
S      3  0.2535630000000 -0.1136340000000  0.5300510000000 1.0   0.09
S      3  0.2145830000000  0.2353200000000 -0.0472640000000 1.0   0.10
S      3  0.2618480000000 -0.2353200000000  0.0472640000000 1.0   0.10
S      3  0.1953260000000  0.4341650000000  0.4449300000000 1.0   0.08
S      3 -0.2496040000000 -0.4341650000000 -0.4449300000000 1.0   0.08
Fe     4 -0.6208730000000 -0.3186480000000  0.4221220000000 1.0   3.86
Fe     4 -0.0429940000000  0.3186480000000 -0.4221220000000 1.0   3.86
Fe     4 -0.0926390000000 -0.3382060000000 -0.0891800000000 1.0   3.77
Fe     4 -0.0034590000000  0.3382060000000  0.0891800000000 1.0   3.77
END
