TITL LFSO-Li2Fe3S3O-201025-171016-82dc98 5.8561 135.382867 -4.33141423E+003 -10.0180 10.2578 9 (P-1) n - 1
REM
REM Run started: Mon, 26 Oct 2020 07:17:42 +0000 in /lustre/scratch/uccabz1/launch_tmp/launcher_2020-10-25-17-10-14-662922
REM CASTEP 20.1 from code version af48c487+ pr-geom-scf-spinfix Tue Jun 2 15:39:59 2020 +0100
REM Functional Perdew Burke Ernzerhof Relativity Koelling-Harmon Dispersion off
REM Cut-off 340.0000 eV Grid scale 1.7500 Gmax 16.5316 1/A FBSC none
REM MP grid 4 3 2 Offset 0.000 0.000 0.000 No. kpts 12 Spacing 0.07
REM Total runtime: 59583.4 s
REM Overall efficiency: 89.8333 %
REM
REM
REM
REM compiler GCC version 4.9.2
REM options -cpp -iprefix /lustre/shared/ucl/apps/gcc/4.9.2/bin/../lib/gcc/x86_64-unknown-linux-gnu/4.9.2/ -mtune=corei7 -march=x86-64 -g -Og
REM COMMAND_LINE
REM seed -846002526 -256360025 -551922255 -2117851032 -724779598 -755049186 -1625960209 627358352 -1898977269 -1895805710 1258421561 1612881870
REM
REM S 3|1.8|5|6|7|30:31:32(qc=5)
REM O 2|1.5|12|13|15|20:21(qc=5)
REM Li 1|1.3|8|9|10|10U:20(qc=5)
REM Fe 3|2.2|2.0|1.0|8|9|10|40:41:32(qc=5)
REM Fe d:4.0 
REM
CELL 1.54180    4.02652    5.68322   11.03900  145.54173   85.75564   83.36761
LATT -1
SFAC Li O  S  Fe 
Li     1  0.6245430000000  0.1720530000000 -0.0868040000000 1.0   0.07
Li     1 -0.6245430000000 -0.1720530000000  0.0868040000000 1.0   0.07
O      2 -0.5000000000000  0.0000000000000  0.0000000000000 1.0  -0.14
S      3  0.1488200000000  0.3213520000000 -0.1516210000000 1.0  -0.02
S      3 -0.1488200000000 -0.3213520000000  0.1516210000000 1.0  -0.02
S      3  0.5000000000000  0.0000000000000 -0.5000000000000 1.0  -0.05
Fe     4 -0.1074440000000  0.4532770000000 -0.2832220000000 1.0  -3.38
Fe     4  0.1074440000000 -0.4532770000000  0.2832220000000 1.0  -3.38
Fe     4 -0.5000000000000 -0.5000000000000  0.5000000000000 1.0  -3.15
END
