TITL LFSO-Li6FeSO3-201028-065625-fbc0b9 -0.0087 145.468111 -3.67958139E+003 4.00000 4.11693 11 (R3) n - 1
REM
REM Run started: Wed, 28 Oct 2020 07:49:39 +0000 in /lustre/scratch/uccabz1/launch_tmp/launcher_2020-10-28-06-56-23-901781
REM CASTEP 20.1 from code version af48c487+ pr-geom-scf-spinfix Tue Jun 2 15:39:59 2020 +0100
REM Functional Perdew Burke Ernzerhof Relativity Koelling-Harmon Dispersion off
REM Cut-off 340.0000 eV Grid scale 1.7500 Gmax 16.5316 1/A FBSC none
REM MP grid 3 3 3 Offset 0.000 0.000 0.000 No. kpts 6 Spacing 0.07
REM Total runtime: 3307.97 s
REM Overall efficiency: 92 %
REM
REM
REM
REM compiler GCC version 4.9.2
REM options -cpp -iprefix /lustre/shared/ucl/apps/gcc/4.9.2/bin/../lib/gcc/x86_64-unknown-linux-gnu/4.9.2/ -mtune=corei7 -march=x86-64 -g -Og
REM COMMAND_LINE
REM seed 650780427 -1035729240 69095774 861219059 393698945 996176405 138423384 -770901394 233813088 -276683702 686561585 -397505292
REM
REM S 3|1.8|5|6|7|30:31:32(qc=5)
REM O 2|1.5|12|13|15|20:21(qc=5)
REM Li 1|1.3|8|9|10|10U:20(qc=5)
REM Fe 3|2.2|2.0|1.0|8|9|10|40:41:32(qc=5)
REM Fe d:4.0 
REM
CELL 1.54180    5.48169    5.48169    5.48169  104.51947  104.51947  104.51947
LATT -1
SFAC Li O  S  Fe 
Li     1  0.1276860000000  0.3747020000000 -0.3280810000000 1.0  -0.01
Li     1  0.3747020000000 -0.3280810000000  0.1276860000000 1.0  -0.01
Li     1 -0.3280810000000  0.1276860000000  0.3747020000000 1.0  -0.01
Li     1 -0.1119350000000  0.2550820000000 -0.0401500000000 1.0  -0.03
Li     1  0.2550820000000 -0.0401500000000 -0.1119350000000 1.0  -0.03
Li     1 -0.0401500000000 -0.1119350000000  0.2550820000000 1.0  -0.03
O      2 -0.0721540000000  0.0277360000000 -0.3779630000000 1.0   0.07
O      2  0.0277360000000 -0.3779630000000 -0.0721540000000 1.0   0.07
O      2 -0.3779630000000 -0.0721540000000  0.0277360000000 1.0   0.07
S      3  0.3521150000000  0.3521150000000  0.3521150000000 1.0   0.01
Fe     4 -0.2769400000000 -0.2769400000000 -0.2769400000000 1.0   3.89
END
