TITL LFSO-Li6FeS3O-201027-131043-1f1a83 0.0519 294.071537 -3.40719981E+003 3.99999 4.24339 11 (Immm) n - 1
REM
REM Run started: Tue, 27 Oct 2020 14:08:24 +0000 in /scratch/scratch/uccabz1/launch_tmp/launcher_2020-10-27-13-10-41-860744
REM CASTEP 19.11| from code version Version unavailable
REM Functional Perdew Burke Ernzerhof Relativity Koelling-Harmon Dispersion off
REM Cut-off 340.0000 eV Grid scale 1.7500 Gmax 16.5316 1/A FBSC none
REM MP grid 3 3 3 Offset 0.000 0.000 0.000 No. kpts 8 Spacing 0.07
REM Total runtime: 3753.11 s
REM Overall efficiency: 74.25 %
REM
REM
REM
REM compiler GCC version 4.9.2
REM options -cpp -iprefix /scratch/UCL/applications/gcc/4.9.2/bin/../lib/gcc/x86_64-unknown-linux-gnu/4.9.2/ -mtune=corei7 -march=x86-64 -g -O2
REM COMMAND_LINE
REM seed -1560236240 -1431832887 919891694 1915337470 -905748089 -2011805677 -1296987741 58512307 1194530379 -667167950 558193061 -1006106241
REM
REM S 3|1.8|5|6|7|30:31:32(qc=5)
REM O 2|1.5|12|13|15|20:21(qc=5)
REM Li 1|1.3|8|9|10|10U:20(qc=5)
REM Fe 3|2.2|2.0|1.0|8|9|10|40:41:32(qc=5)
REM Fe d:4.0 
REM
CELL 1.54180    7.10178    6.67640    7.88792  115.03709  116.75450   90.00000
LATT -1
SFAC Li O  S  Fe 
Li     1  0.1915900000000 -0.2276730000000  0.0024500000000 1.0  -0.04
Li     1  0.1891400000000  0.2276730000000 -0.0024500000000 1.0  -0.04
Li     1 -0.1891400000000  0.2301240000000  0.0024500000000 1.0  -0.04
Li     1 -0.1915900000000 -0.2301240000000 -0.0024500000000 1.0  -0.04
Li     1 -0.1502470000000 -0.1502470000000 -0.3004940000000 1.0   0.04
Li     1  0.1502470000000  0.1502470000000  0.3004940000000 1.0   0.04
O      2  0.0000000000000  0.0000000000000  0.0000000000000 1.0   0.00
S      3 -0.3301450000000 -0.3301450000000 -0.6602910000000 1.0   0.23
S      3  0.3301450000000  0.3301450000000  0.6602910000000 1.0   0.23
S      3  0.0000000000000  0.5000000000000  0.0000000000000 1.0   0.08
Fe     4  0.5000000000000  0.5000000000000  0.0000000000000 1.0   3.55
END
