TITL LFSO-Li2Fe3S2O2-201022-094529-08cdc9 -1.1138 307.085216 -8.93400137E+003 8.00000 14.4618 18 (P-1) n - 1
REM
REM Run started: Fri, 23 Oct 2020 19:05:53 +0100 in /lustre/scratch/uccabz1/launch_tmp/launcher_2020-10-22-23-01-19-980596
REM CASTEP 20.1 from code version af48c487+ pr-geom-scf-spinfix Tue Jun 2 15:39:59 2020 +0100
REM Functional Perdew Burke Ernzerhof Relativity Koelling-Harmon Dispersion off
REM Cut-off 340.0000 eV Grid scale 1.7500 Gmax 16.5316 1/A FBSC none
REM MP grid 4 3 2 Offset 0.000 0.000 0.000 No. kpts 12 Spacing 0.07
REM Total runtime: 140740 s
REM Overall efficiency: 98.25 %
REM
REM
REM
REM compiler GCC version 4.9.2
REM options -cpp -iprefix /lustre/shared/ucl/apps/gcc/4.9.2/bin/../lib/gcc/x86_64-unknown-linux-gnu/4.9.2/ -mtune=corei7 -march=x86-64 -g -Og
REM COMMAND_LINE
REM seed 1289690836 692310880 -1532350353 -1396310244 -672069570 -1974455526 447706648 -1282533264 -1527041583 702040820 386572599 538443299
REM
REM S 3|1.8|5|6|7|30:31:32(qc=5)
REM O 2|1.5|12|13|15|20:21(qc=5)
REM Li 1|1.3|8|9|10|10U:20(qc=5)
REM Fe 3|2.2|2.0|1.0|8|9|10|40:41:32(qc=5)
REM Fe d:4.0 
REM
CELL 1.54180    3.75932    6.17463   14.49261   65.93791   88.98856   90.46171
LATT -1
SFAC Li O  S  Fe 
Li     1 -0.2615880000000  0.0551650000000 -0.3666590000000 1.0   0.01
Li     1  0.2615880000000 -0.0551650000000  0.3666590000000 1.0   0.01
Li     1  0.7180270000000  0.5285410000000 -0.2711310000000 1.0  -0.02
Li     1 -0.7180270000000 -0.5285410000000  0.2711310000000 1.0  -0.02
O      2 -0.2618910000000  0.3935450000000 -0.4095370000000 1.0  -0.01
O      2  0.2618910000000 -0.3935450000000  0.4095370000000 1.0  -0.01
O      2 -0.2770180000000  0.5323840000000 -0.1227690000000 1.0   0.09
O      2  0.2770180000000 -0.5323840000000  0.1227690000000 1.0   0.09
S      3  0.2307270000000 -0.2115430000000 -0.3380400000000 1.0   0.00
S      3 -0.2307270000000  0.2115430000000  0.3380400000000 1.0   0.00
S      3 -0.2369490000000 -0.0474440000000  0.1290840000000 1.0   0.14
S      3  0.2369490000000  0.0474440000000 -0.1290840000000 1.0   0.14
Fe     4 -0.2637700000000  0.1844020000000 -0.0564230000000 1.0   3.77
Fe     4  0.2637700000000 -0.1844020000000  0.0564230000000 1.0   3.77
Fe     4 -0.2377660000000 -0.4935200000000  0.4145640000000 1.0   0.04
Fe     4  0.2377660000000  0.4935200000000 -0.4145640000000 1.0   0.04
Fe     4 -0.2186460000000  0.3359550000000  0.1497560000000 1.0  -0.02
Fe     4  0.2186460000000 -0.3359550000000 -0.1497560000000 1.0  -0.02
END
