TITL LFSO-Li5FeS2O2-201026-223454-061fdc 0.0214 316.873122 -6.68785544E+003 8.00150 8.66335 20 (P3) n - 1
REM
REM Run started: Tue, 27 Oct 2020 00:08:14 +0000 in /lustre/scratch/uccabz1/launch_tmp/launcher_2020-10-26-22-34-52-734853
REM CASTEP 20.1 from code version af48c487+ pr-geom-scf-spinfix Tue Jun 2 15:39:59 2020 +0100
REM Functional Perdew Burke Ernzerhof Relativity Koelling-Harmon Dispersion off
REM Cut-off 340.0000 eV Grid scale 1.7500 Gmax 16.5316 1/A FBSC none
REM MP grid 2 2 4 Offset 0.000 0.000 0.000 No. kpts 8 Spacing 0.07
REM Total runtime: 5646.48 s
REM Overall efficiency: 74.75 %
REM
REM
REM
REM compiler GCC version 4.9.2
REM options -cpp -iprefix /lustre/shared/ucl/apps/gcc/4.9.2/bin/../lib/gcc/x86_64-unknown-linux-gnu/4.9.2/ -mtune=corei7 -march=x86-64 -g -Og
REM COMMAND_LINE
REM seed 236566066 -1850691580 1444062258 -1700794633 1155287110 -1896479988 -766042735 7771767 18263255 -1163890540 1187201599 2094818075
REM
REM S 3|1.8|5|6|7|30:31:32(qc=5)
REM O 2|1.5|12|13|15|20:21(qc=5)
REM Li 1|1.3|8|9|10|10U:20(qc=5)
REM Fe 3|2.2|2.0|1.0|8|9|10|40:41:32(qc=5)
REM Fe d:4.0 
REM
CELL 1.54180    9.37084    9.37084    4.16676   90.00000   90.00000  120.00000
LATT -1
SFAC Li O  S  Fe 
Li     1  0.1734390000000  0.2048430000000 -0.3082030000000 1.0   0.03
Li     1  0.0314040000000 -0.1734390000000 -0.3082030000000 1.0   0.03
Li     1 -0.2048430000000 -0.0314040000000 -0.3082030000000 1.0   0.03
Li     1  0.0358650000000  0.4596440000000 -0.2665280000000 1.0   0.01
Li     1  0.4237800000000 -0.0358650000000 -0.2665280000000 1.0   0.01
Li     1 -0.4596440000000 -0.4237800000000 -0.2665280000000 1.0   0.01
Li     1 -0.4394470000000 -0.1800980000000  0.2262580000000 1.0  -0.02
Li     1  0.2593490000000  0.4394470000000  0.2262580000000 1.0  -0.02
Li     1  0.1800980000000 -0.2593490000000  0.2262580000000 1.0  -0.02
Li     1 -0.3333330000000  0.3333330000000 -0.3571070000000 1.0  -0.14
O      2  0.1718650000000 -0.2637430000000 -0.2737290000000 1.0   0.22
O      2 -0.4356080000000 -0.1718650000000 -0.2737290000000 1.0   0.22
O      2  0.2637430000000  0.4356080000000 -0.2737290000000 1.0   0.22
O      2  0.3333330000000 -0.3333330000000  0.2273090000000 1.0   0.13
S      3 -0.3333080000000 -0.4357440000000  0.2327300000000 1.0   0.06
S      3 -0.1024360000000  0.3333080000000  0.2327300000000 1.0   0.06
S      3  0.4357440000000  0.1024360000000  0.2327300000000 1.0   0.06
S      3 -0.0000000000000  0.0000000000000  0.2508990000000 1.0  -0.20
Fe     4  0.3333330000000 -0.3333330000000 -0.2807440000000 1.0   3.98
Fe     4 -0.3333330000000  0.3333330000000  0.1489010000000 1.0   3.31
END
