TITL LFSO-Li2Fe3S3O-201026-130417-e29fb9 -0.0480 190.672002 -4.33314937E+003 -0.145564E-12 4.52897 9 (R3) n - 1
REM
REM Run started: Mon, 26 Oct 2020 17:57:19 +0000 in /lustre/scratch/uccabz1/launch_tmp/launcher_2020-10-26-13-04-15-055558
REM CASTEP 20.1 from code version af48c487+ pr-geom-scf-spinfix Tue Jun 2 15:39:59 2020 +0100
REM Functional Perdew Burke Ernzerhof Relativity Koelling-Harmon Dispersion off
REM Cut-off 340.0000 eV Grid scale 1.7500 Gmax 16.5316 1/A FBSC none
REM MP grid 3 3 3 Offset 0.000 0.000 0.000 No. kpts 6 Spacing 0.07
REM Total runtime: 18957.7 s
REM Overall efficiency: 95.3333 %
REM
REM
REM
REM compiler GCC version 4.9.2
REM options -cpp -iprefix /lustre/shared/ucl/apps/gcc/4.9.2/bin/../lib/gcc/x86_64-unknown-linux-gnu/4.9.2/ -mtune=corei7 -march=x86-64 -g -Og
REM COMMAND_LINE
REM seed -1937189256 -1230463779 1492606893 -1277257361 230632512 -578831912 1185550841 -1704975687 1895411267 1541393692 -325632901 535058550
REM
REM S 3|1.8|5|6|7|30:31:32(qc=5)
REM O 2|1.5|12|13|15|20:21(qc=5)
REM Li 1|1.3|8|9|10|10U:20(qc=5)
REM Fe 3|2.2|2.0|1.0|8|9|10|40:41:32(qc=5)
REM Fe d:4.0 
REM
CELL 1.54180    6.25934    6.25934    6.25934   64.54083   64.54083   64.54083
LATT -1
SFAC Li O  S  Fe 
Li     1 -0.4791210000000 -0.4791210000000 -0.4791210000000 1.0   0.01
Li     1  0.2830680000000  0.2830680000000  0.2830680000000 1.0   0.02
O      2 -0.3482910000000 -0.3482910000000 -0.3482910000000 1.0   0.04
S      3  0.3358210000000 -0.2813430000000  0.1214590000000 1.0   0.03
S      3 -0.2813430000000  0.1214590000000  0.3358210000000 1.0   0.03
S      3  0.1214590000000  0.3358210000000 -0.2813430000000 1.0   0.03
Fe     4  0.4335260000000 -0.0299980000000 -0.2868400000000 1.0  -0.05
Fe     4 -0.0299980000000 -0.2868400000000  0.4335260000000 1.0  -0.05
Fe     4 -0.2868400000000  0.4335260000000 -0.0299980000000 1.0  -0.05
END
