TITL LFSO-Li6FeSO3-201028-040037-52075e -0.0272 139.448027 -3.67802318E+003 -0.321142E-14 1.77635 11 (P-6) n - 1
REM
REM Run started: Wed, 28 Oct 2020 04:25:11 +0000 in /lustre/scratch/uccabz1/launch_tmp/launcher_2020-10-28-04-00-36-015908
REM CASTEP 20.1 from code version af48c487+ pr-geom-scf-spinfix Tue Jun 2 15:39:59 2020 +0100
REM Functional Perdew Burke Ernzerhof Relativity Koelling-Harmon Dispersion off
REM Cut-off 340.0000 eV Grid scale 1.7500 Gmax 16.5316 1/A FBSC none
REM MP grid 3 3 4 Offset 0.000 0.000 0.000 No. kpts 10 Spacing 0.07
REM Total runtime: 1941.56 s
REM Overall efficiency: 79.1667 %
REM
REM
REM
REM compiler GCC version 4.9.2
REM options -cpp -iprefix /lustre/shared/ucl/apps/gcc/4.9.2/bin/../lib/gcc/x86_64-unknown-linux-gnu/4.9.2/ -mtune=corei7 -march=x86-64 -g -Og
REM COMMAND_LINE
REM seed 17034220 1463920745 -1303420301 -1446392445 1202664931 -1795633449 27589544 30272835 2010028895 -2059378643 1536468066 -1325357148
REM
REM S 3|1.8|5|6|7|30:31:32(qc=5)
REM O 2|1.5|12|13|15|20:21(qc=5)
REM Li 1|1.3|8|9|10|10U:20(qc=5)
REM Fe 3|2.2|2.0|1.0|8|9|10|40:41:32(qc=5)
REM Fe d:4.0 
REM
CELL 1.54180    6.61045    6.61045    3.68484   90.00000   90.00000  120.00000
LATT -1
SFAC Li O  S  Fe 
Li     1 -0.0222130000000  0.4394310000000 -0.1389050000000 1.0
Li     1 -0.4394310000000  0.5383550000000 -0.1389050000000 1.0
Li     1 -0.5383550000000  0.0222130000000 -0.1389050000000 1.0
Li     1  0.0297280000000 -0.2752400000000  0.3622420000000 1.0
Li     1  0.2752400000000  0.3049690000000  0.3622420000000 1.0
Li     1 -0.3049690000000 -0.0297280000000  0.3622420000000 1.0
O      2  0.1235090000000 -0.2006100000000 -0.1392330000000 1.0
O      2  0.2006100000000  0.3241190000000 -0.1392330000000 1.0
O      2 -0.3241190000000 -0.1235090000000 -0.1392330000000 1.0
S      3 -0.3333330000000  0.3333330000000  0.3595740000000 1.0
Fe     4  0.0000000000000 -0.0000000000000 -0.1376240000000 1.0
END
