TITL LFSO-Li3FeS2O-201023-071537-bd8259 -0.0698 367.060180 -7.52065853E+003 -11.1856 11.4937 21 (Pm) n - 1
REM
REM Run started: Sat, 24 Oct 2020 17:52:07 +0100 in /lustre/scratch/uccabz1/launch_tmp/launcher_2020-10-23-06-15-35-782302
REM CASTEP 20.1 from code version af48c487+ pr-geom-scf-spinfix Tue Jun 2 15:39:59 2020 +0100
REM Functional Perdew Burke Ernzerhof Relativity Koelling-Harmon Dispersion off
REM Cut-off 340.0000 eV Grid scale 1.7500 Gmax 16.5316 1/A FBSC none
REM MP grid 5 3 1 Offset 0.000 0.000 0.000 No. kpts 8 Spacing 0.07
REM Total runtime: 119924 s
REM Overall efficiency: 97.9167 %
REM
REM
REM
REM compiler GCC version 4.9.2
REM options -cpp -iprefix /lustre/shared/ucl/apps/gcc/4.9.2/bin/../lib/gcc/x86_64-unknown-linux-gnu/4.9.2/ -mtune=corei7 -march=x86-64 -g -Og
REM COMMAND_LINE
REM seed 40267068 -1833580329 1749926001 1919439071 -1107230705 1394101569 405903446 525185300 -1683161571 -1131499420 448148886 187612207
REM
REM S 3|1.8|5|6|7|30:31:32(qc=5)
REM O 2|1.5|12|13|15|20:21(qc=5)
REM Li 1|1.3|8|9|10|10U:20(qc=5)
REM Fe 3|2.2|2.0|1.0|8|9|10|40:41:32(qc=5)
REM Fe d:4.0 
REM
CELL 1.54180    3.96290    7.55817   16.08954   90.00000   90.00000  130.38887
LATT -1
SFAC Li O  S  Fe 
Li     1  0.1055890000000  0.2414610000000 -0.4222380000000 1.0   0.09
Li     1  0.1055890000000  0.2414610000000  0.4222380000000 1.0   0.09
Li     1 -0.0730900000000 -0.4394860000000  0.1227040000000 1.0  -0.00
Li     1 -0.0730900000000 -0.4394860000000 -0.1227040000000 1.0  -0.00
Li     1  0.6713660000000 -0.2224710000000 -0.2943190000000 1.0   0.02
Li     1  0.6713660000000 -0.2224710000000  0.2943190000000 1.0   0.02
Li     1 -0.0147830000000  0.2700450000000 -0.2709980000000 1.0  -0.00
Li     1 -0.0147830000000  0.2700450000000  0.2709980000000 1.0  -0.00
Li     1 -0.0634550000000  0.0168710000000  0.0000000000000 1.0  -0.00
O      2 -0.6765510000000 -0.5066360000000 -0.3525400000000 1.0  -0.12
O      2 -0.6765510000000 -0.5066360000000  0.3525400000000 1.0  -0.12
O      2 -0.4215770000000 -0.6460680000000  0.5000000000000 1.0  -0.14
S      3  0.1039640000000  0.1873140000000 -0.1346130000000 1.0  -0.00
S      3  0.1039640000000  0.1873140000000  0.1346130000000 1.0  -0.00
S      3 -0.2768490000000 -0.1900280000000  0.1366770000000 1.0  -0.00
S      3 -0.2768490000000 -0.1900280000000 -0.1366770000000 1.0  -0.00
S      3  0.3769070000000 -0.0372920000000 -0.3577540000000 1.0  -0.05
S      3  0.3769070000000 -0.0372920000000  0.3577540000000 1.0  -0.05
Fe     4 -0.0761180000000  0.5563650000000  0.3988520000000 1.0  -3.84
Fe     4 -0.0761180000000  0.5563650000000 -0.3988520000000 1.0  -3.84
Fe     4  0.3239370000000 -0.0238300000000  0.5000000000000 1.0  -3.23
END
