TITL LFSO-Li6FeS3O-201027-131438-bbe069 -0.0266 628.331210 -6.81823289E+003 6.84984 7.81228 22 (Fmm2) n - 1
REM
REM Run started: Wed, 28 Oct 2020 01:30:57 +0000 in /lustre/scratch/uccabz1/launch_tmp/launcher_2020-10-27-13-14-36-697318
REM CASTEP 20.1 from code version af48c487+ pr-geom-scf-spinfix Tue Jun 2 15:39:59 2020 +0100
REM Functional Perdew Burke Ernzerhof Relativity Koelling-Harmon Dispersion off
REM Cut-off 340.0000 eV Grid scale 1.7500 Gmax 16.5316 1/A FBSC none
REM MP grid 2 2 3 Offset 0.000 0.000 0.000 No. kpts 5 Spacing 0.07
REM Total runtime: 47415.5 s
REM Overall efficiency: 78.0769 %
REM
REM
REM
REM compiler GCC version 4.9.2
REM options -cpp -iprefix /lustre/shared/ucl/apps/gcc/4.9.2/bin/../lib/gcc/x86_64-unknown-linux-gnu/4.9.2/ -mtune=corei7 -march=x86-64 -g -Og
REM COMMAND_LINE
REM seed -1900751015 -1314607361 1837553423 -1064795117 923960666 -280158488 -452866933 150178162 328113875 165027937 607454537 -850373551
REM
REM S 3|1.8|5|6|7|30:31:32(qc=5)
REM O 2|1.5|12|13|15|20:21(qc=5)
REM Li 1|1.3|8|9|10|10U:20(qc=5)
REM Fe 3|2.2|2.0|1.0|8|9|10|40:41:32(qc=5)
REM Fe d:4.0 
REM
CELL 1.54180   10.27586   10.27586    9.59309  124.93422  124.93422   86.03339
LATT -1
SFAC Li O  S  Fe 
Li     1 -0.0649820000000  0.3700540000000 -0.3196580000000 1.0  -0.01
Li     1 -0.3102880000000  0.2546760000000  0.3196580000000 1.0  -0.01
Li     1  0.3700540000000 -0.0649820000000 -0.3196580000000 1.0  -0.01
Li     1  0.2546760000000 -0.3102880000000  0.3196580000000 1.0  -0.01
Li     1  0.4329840000000 -0.3799590000000  0.6133700000000 1.0  -0.02
Li     1  0.0066700000000 -0.1803870000000 -0.6133700000000 1.0  -0.02
Li     1 -0.3799590000000  0.4329840000000  0.6133700000000 1.0  -0.02
Li     1 -0.1803870000000  0.0066700000000 -0.6133700000000 1.0  -0.02
Li     1  0.4073270000000  0.2016370000000 -0.5205160000000 1.0  -0.01
Li     1 -0.2778470000000 -0.0721580000000  0.5205160000000 1.0  -0.01
Li     1  0.2016370000000  0.4073270000000 -0.5205160000000 1.0  -0.01
Li     1 -0.0721580000000 -0.2778470000000  0.5205160000000 1.0  -0.01
O      2 -0.1400060000000 -0.1400060000000  0.4447700000000 1.0   0.17
O      2 -0.5847760000000 -0.5847760000000 -0.4447700000000 1.0   0.17
S      3 -0.4216140000000 -0.1608200000000 -0.3678590000000 1.0  -0.05
S      3  0.2070400000000 -0.0537540000000  0.3678590000000 1.0  -0.05
S      3 -0.1608200000000 -0.4216140000000 -0.3678590000000 1.0  -0.05
S      3 -0.0537540000000  0.2070400000000  0.3678590000000 1.0  -0.05
S      3  0.1737460000000 -0.3262540000000 -0.5000000000000 1.0   0.05
S      3 -0.3262540000000  0.1737460000000 -0.5000000000000 1.0   0.05
Fe     4 -0.2036850000000 -0.0044310000000  0.0000000000000 1.0   3.40
Fe     4 -0.0044310000000 -0.2036850000000  0.0000000000000 1.0   3.40
END
