TITL LFSO-Li2Fe4S4O-201023-030050-7a403f 0.0343 538.687712 -1.09915905E+004 -26.8393 28.6872 22 (Pmm2) n - 1
REM
REM Run started: Fri, 23 Oct 2020 16:35:35 +0100 in /lustre/scratch/uccabz1/launch_tmp/launcher_2020-10-23-02-00-48-235516
REM CASTEP 20.1 from code version af48c487+ pr-geom-scf-spinfix Tue Jun 2 15:39:59 2020 +0100
REM Functional Perdew Burke Ernzerhof Relativity Koelling-Harmon Dispersion off
REM Cut-off 340.0000 eV Grid scale 1.7500 Gmax 16.5316 1/A FBSC none
REM MP grid 4 2 1 Offset 0.000 0.000 0.000 No. kpts 2 Spacing 0.07
REM Total runtime: 48925 s
REM Overall efficiency: 71 %
REM
REM
REM
REM compiler GCC version 4.9.2
REM options -cpp -iprefix /lustre/shared/ucl/apps/gcc/4.9.2/bin/../lib/gcc/x86_64-unknown-linux-gnu/4.9.2/ -mtune=corei7 -march=x86-64 -g -Og
REM COMMAND_LINE
REM seed -1354358303 597583803 -1854146841 -1275192497 447935708 -928634299 -1561786737 -2067155376 -1120840616 -1011959773 -119177393 229026734
REM
REM S 3|1.8|5|6|7|30:31:32(qc=5)
REM O 2|1.5|12|13|15|20:21(qc=5)
REM Li 1|1.3|8|9|10|10U:20(qc=5)
REM Fe 3|2.2|2.0|1.0|8|9|10|40:41:32(qc=5)
REM Fe d:4.0 
REM
CELL 1.54180    3.98951    7.93739   17.01137   90.00000   90.00000   90.00000
LATT -1
SFAC Li O  S  Fe 
Li     1 -0.3580140000000  0.1765250000000  0.2361080000000 1.0   0.04
Li     1 -0.3580140000000 -0.1765250000000 -0.2361080000000 1.0   0.04
Li     1 -0.3580140000000 -0.1765250000000  0.2361080000000 1.0   0.04
Li     1 -0.3580140000000  0.1765250000000 -0.2361080000000 1.0   0.04
O      2  0.2127830000000  0.0000000000000  0.1905840000000 1.0   0.16
O      2  0.2127830000000  0.0000000000000 -0.1905840000000 1.0   0.16
S      3  0.1896250000000 -0.2149980000000  0.1331080000000 1.0   0.08
S      3  0.1896250000000  0.2149980000000 -0.1331080000000 1.0   0.08
S      3  0.1896250000000  0.2149980000000  0.1331080000000 1.0   0.08
S      3  0.1896250000000 -0.2149980000000 -0.1331080000000 1.0   0.08
S      3 -0.3897050000000  0.2329700000000  0.3740010000000 1.0  -0.08
S      3 -0.3897050000000 -0.2329700000000 -0.3740010000000 1.0  -0.08
S      3 -0.3897050000000 -0.2329700000000  0.3740010000000 1.0  -0.08
S      3 -0.3897050000000  0.2329700000000 -0.3740010000000 1.0  -0.08
Fe     4  0.1088110000000  0.3266690000000 -0.4106020000000 1.0  -3.56
Fe     4  0.1088110000000 -0.3266690000000  0.4106020000000 1.0  -3.56
Fe     4  0.1088110000000 -0.3266690000000 -0.4106020000000 1.0  -3.56
Fe     4  0.1088110000000  0.3266690000000  0.4106020000000 1.0  -3.56
Fe     4 -0.3117920000000 -0.3272100000000 -0.0887960000000 1.0  -3.27
Fe     4 -0.3117920000000  0.3272100000000  0.0887960000000 1.0  -3.27
Fe     4 -0.3117920000000  0.3272100000000 -0.0887960000000 1.0  -3.27
Fe     4 -0.3117920000000 -0.3272100000000  0.0887960000000 1.0  -3.27
END
