TITL LFSO-Li3FeS2O-201023-052402-b9efb9 0.0136 104.934588 -2.50524124E+003 4.38831 4.49290 7 (Cmm2) n - 1
REM
REM Run started: Fri, 23 Oct 2020 05:46:46 +0100 in /lustre/scratch/uccabz1/launch_tmp/launcher_2020-10-23-04-24-01-347921
REM CASTEP 20.1 from code version af48c487+ pr-geom-scf-spinfix Tue Jun 2 15:39:59 2020 +0100
REM Functional Perdew Burke Ernzerhof Relativity Koelling-Harmon Dispersion off
REM Cut-off 340.0000 eV Grid scale 1.7500 Gmax 16.5316 1/A FBSC none
REM MP grid 4 3 3 Offset 0.000 0.000 0.000 No. kpts 8 Spacing 0.07
REM Total runtime: 1561.73 s
REM Overall efficiency: 89.125 %
REM
REM
REM
REM compiler GCC version 4.9.2
REM options -cpp -iprefix /lustre/shared/ucl/apps/gcc/4.9.2/bin/../lib/gcc/x86_64-unknown-linux-gnu/4.9.2/ -mtune=corei7 -march=x86-64 -g -Og
REM COMMAND_LINE
REM seed 86658050 -1492788299 1642582745 -911708376 1620262804 1987888536 183073948 1200414416 1154002645 1164100932 1952205391 1410334603
REM
REM S 3|1.8|5|6|7|30:31:32(qc=5)
REM O 2|1.5|12|13|15|20:21(qc=5)
REM Li 1|1.3|8|9|10|10U:20(qc=5)
REM Fe 3|2.2|2.0|1.0|8|9|10|40:41:32(qc=5)
REM Fe d:4.0 
REM
CELL 1.54180    4.13799    5.13160    5.13160   74.36425   90.00000   90.00000
LATT -1
SFAC Li O  S  Fe 
Li     1  0.3564230000000  0.2866690000000  0.2866690000000 1.0  -0.06
Li     1  0.3564230000000 -0.2866690000000 -0.2866690000000 1.0  -0.06
Li     1 -0.1477930000000  0.5000000000000  0.5000000000000 1.0  -0.05
O      2  0.3524740000000 -0.5000000000000 -0.5000000000000 1.0   0.59
S      3 -0.1376350000000 -0.5000000000000  0.0000000000000 1.0   0.10
S      3 -0.1376350000000  0.0000000000000  0.5000000000000 1.0   0.10
Fe     4 -0.1086580000000  0.0000000000000  0.0000000000000 1.0   3.77
END
