TITL LFSO-Li5FeS2O2-201026-222926-c4b6e7 0.0080 119.910541 -3.34505520E+003 3.66116 3.75812 10 (C2/m) n - 1
REM
REM Run started: Mon, 26 Oct 2020 23:01:20 +0000 in /lustre/scratch/uccabz1/launch_tmp/launcher_2020-10-26-22-30-09-650990
REM CASTEP 20.1 from code version af48c487+ pr-geom-scf-spinfix Tue Jun 2 15:39:59 2020 +0100
REM Functional Perdew Burke Ernzerhof Relativity Koelling-Harmon Dispersion off
REM Cut-off 340.0000 eV Grid scale 1.7500 Gmax 16.5316 1/A FBSC none
REM MP grid 6 3 3 Offset 0.000 0.000 0.000 No. kpts 27 Spacing 0.07
REM Total runtime: 2015.21 s
REM Overall efficiency: 76.1667 %
REM
REM
REM
REM compiler GCC version 4.9.2
REM options -cpp -iprefix /scratch/UCL/applications/gcc/4.9.2/bin/../lib/gcc/x86_64-unknown-linux-gnu/4.9.2/ -mtune=corei7 -march=x86-64 -g -O2
REM COMMAND_LINE
REM seed 976468389 2036794861 -1067386033 489357791 -1866165284 -1687474756 1145115526 273476105 -2034943833 1277995443 1576994606 -1456651322
REM
REM S 3|1.8|5|6|7|30:31:32(qc=5)
REM O 2|1.5|12|13|15|20:21(qc=5)
REM Li 1|1.3|8|9|10|10U:20(qc=5)
REM Fe 3|2.2|2.0|1.0|8|9|10|40:41:32(qc=5)
REM Fe d:4.0 
REM
CELL 1.54180    2.84611    7.79625    6.93522   55.30107   79.30753   71.40391
LATT -1
SFAC Li O  S  Fe 
Li     1 -0.2982220000000 -0.1110430000000  0.2479950000000 1.0  -0.03
Li     1  0.2982220000000  0.1110430000000 -0.2479950000000 1.0  -0.03
Li     1  0.2992490000000  0.3657030000000  0.2450100000000 1.0  -0.03
Li     1 -0.2992490000000 -0.3657030000000 -0.2450100000000 1.0  -0.03
Li     1  0.0000000000000 -0.5000000000000 -0.5000000000000 1.0   0.02
O      2  0.2222760000000 -0.2607400000000 -0.4983220000000 1.0   0.08
O      2 -0.2222760000000  0.2607400000000  0.4983220000000 1.0   0.08
S      3  0.0012770000000 -0.2457630000000 -0.0074210000000 1.0   0.04
S      3 -0.0012770000000  0.2457630000000  0.0074210000000 1.0   0.04
Fe     4  0.0000000000000  0.0000000000000 -0.5000000000000 1.0   3.49
END
