TITL LFSO-Li4Fe2S3O-201027-062010-8b235a -0.0047 192.822143 -3.86990472E+003 6.60649 6.85486 10 (Imm2) n - 1
REM
REM Run started: Tue, 27 Oct 2020 08:48:58 +0000 in /scratch/scratch/uccabz1/launch_tmp/launcher_2020-10-27-06-20-08-474133
REM CASTEP 19.11| from code version Version unavailable
REM Functional Perdew Burke Ernzerhof Relativity Koelling-Harmon Dispersion off
REM Cut-off 340.0000 eV Grid scale 1.7500 Gmax 16.5316 1/A FBSC none
REM MP grid 3 3 3 Offset 0.000 0.000 0.000 No. kpts 8 Spacing 0.07
REM Total runtime: 9036.63 s
REM Overall efficiency: 91.7778 %
REM
REM
REM
REM compiler GCC version 4.9.2
REM options -cpp -iprefix /scratch/UCL/applications/gcc/4.9.2/bin/../lib/gcc/x86_64-unknown-linux-gnu/4.9.2/ -mtune=corei7 -march=x86-64 -g -O2
REM COMMAND_LINE
REM seed -422674268 1190399763 -2046268540 -1479589245 102071519 -802824599 1422937067 -1488062006 -405533278 -1492795922 1744797298 257456757
REM
REM S 3|1.8|5|6|7|30:31:32(qc=5)
REM O 2|1.5|12|13|15|20:21(qc=5)
REM Li 1|1.3|8|9|10|10U:20(qc=5)
REM Fe 3|2.2|2.0|1.0|8|9|10|40:41:32(qc=5)
REM Fe d:4.0 
REM
CELL 1.54180    5.67996    7.63368    7.63368   39.35795   68.15894   68.15894
LATT -1
SFAC Li O  S  Fe 
Li     1  0.4606280000000  0.0256200000000 -0.4798960000000 1.0  -0.00
Li     1 -0.0063520000000 -0.4798960000000  0.0256200000000 1.0  -0.00
Li     1  0.4606280000000 -0.4798960000000  0.0256200000000 1.0  -0.00
Li     1 -0.0063520000000  0.0256200000000 -0.4798960000000 1.0  -0.00
O      2  0.2810520000000  0.2189480000000  0.2189480000000 1.0   0.03
S      3  0.2694840000000 -0.0779300000000 -0.0779300000000 1.0  -0.02
S      3 -0.1136250000000 -0.0779300000000 -0.0779300000000 1.0  -0.02
S      3 -0.1729160000000 -0.3270840000000 -0.3270840000000 1.0  -0.02
Fe     4 -0.3533780000000  0.0947530000000  0.0947530000000 1.0   3.32
Fe     4  0.1638720000000  0.0947530000000  0.0947530000000 1.0   3.32
END
