TITL LFSO-LiFe3S4O-201028-111418-a179af -0.0531 377.451099 -8.87649047E+003 22.0000 22.8999 18 (Cc) n - 1
REM
REM Run started: Thu, 29 Oct 2020 02:48:55 +0000 in /lustre/scratch/uccabz1/launch_tmp/launcher_2020-10-28-23-35-07-005421
REM CASTEP 20.1 from code version af48c487+ pr-geom-scf-spinfix Tue Jun 2 15:39:59 2020 +0100
REM Functional Perdew Burke Ernzerhof Relativity Koelling-Harmon Dispersion off
REM Cut-off 340.0000 eV Grid scale 1.7500 Gmax 16.5316 1/A FBSC none
REM MP grid 3 3 3 Offset 0.000 0.000 0.000 No. kpts 10 Spacing 0.07
REM Total runtime: 60134.7 s
REM Overall efficiency: 77.0909 %
REM
REM
REM
REM compiler GCC version 4.9.2
REM options -cpp -iprefix /lustre/shared/ucl/apps/gcc/4.9.2/bin/../lib/gcc/x86_64-unknown-linux-gnu/4.9.2/ -mtune=corei7 -march=x86-64 -g -Og
REM COMMAND_LINE
REM seed -1517623248 1268024911 1329546892 751035091 929587579 1688344507 -1697974049 -1430106557 -1682265975 146562694 805495205 1567023652
REM
REM S 3|1.8|5|6|7|30:31:32(qc=5)
REM O 2|1.5|12|13|15|20:21(qc=5)
REM Li 1|1.3|8|9|10|10U:20(qc=5)
REM Fe 3|2.2|2.0|1.0|8|9|10|40:41:32(qc=5)
REM Fe d:4.0 
REM
CELL 1.54180    6.88348    9.05119   10.92023  140.35355  108.37115   90.00000
LATT -1
SFAC Li O  S  Fe 
Li     1  0.1153710000000 -0.5781570000000  0.0830470000000 1.0   0.00
Li     1 -0.0323240000000 -0.0781570000000  0.0830470000000 1.0   0.00
O      2  0.3362480000000  0.3273330000000  0.1235900000000 1.0   0.13
O      2 -0.2126580000000 -0.1726670000000  0.1235900000000 1.0   0.13
S      3 -0.3189820000000  0.1439100000000 -0.1857280000000 1.0  -0.01
S      3  0.1332540000000 -0.3560900000000 -0.1857280000000 1.0  -0.01
S      3  0.0153120000000 -0.3086760000000  0.3966940000000 1.0  -0.07
S      3  0.3813820000000  0.1913240000000  0.3966940000000 1.0  -0.07
S      3  0.0039730000000  0.3434410000000 -0.2780310000000 1.0   0.02
S      3 -0.2820040000000 -0.1565590000000 -0.2780310000000 1.0   0.02
S      3  0.4799230000000 -0.2881840000000  0.2082290000000 1.0  -0.06
S      3 -0.2716930000000  0.2118160000000  0.2082290000000 1.0  -0.06
Fe     4  0.5382790000000 -0.0798650000000  0.1501190000000 1.0   3.51
Fe     4 -0.3881600000000  0.4201350000000  0.1501190000000 1.0   3.51
Fe     4 -0.0900580000000 -0.0956170000000  0.3561710000000 1.0   3.73
Fe     4 -0.5537720000000  0.4043830000000  0.3561710000000 1.0   3.73
Fe     4 -0.3812580000000  0.1363900000000 -0.4282480000000 1.0   3.74
Fe     4 -0.0469900000000 -0.3636100000000 -0.4282480000000 1.0   3.74
END
