TITL LFSO-Li4Fe3S4O-201030-002517-f8b9d6 0.0132 284.933280 -5.03685878E+003 10.1294 11.9584 12 (P3) n - 1
REM
REM Run started: Fri, 30 Oct 2020 03:08:30 +0000 in /lustre/scratch/uccabz1/launch_tmp/launcher_2020-10-30-01-29-49-107002
REM CASTEP 20.1 from code version af48c487+ pr-geom-scf-spinfix Tue Jun 2 15:39:59 2020 +0100
REM Functional Perdew Burke Ernzerhof Relativity Koelling-Harmon Dispersion off
REM Cut-off 340.0000 eV Grid scale 1.7500 Gmax 16.5316 1/A FBSC none
REM MP grid 3 3 3 Offset 0.000 0.000 0.000 No. kpts 8 Spacing 0.07
REM Total runtime: 9531.25 s
REM Overall efficiency: 89.6923 %
REM
REM
REM
REM compiler GCC version 4.9.2
REM options -cpp -iprefix /scratch/UCL/applications/gcc/4.9.2/bin/../lib/gcc/x86_64-unknown-linux-gnu/4.9.2/ -mtune=corei7 -march=x86-64 -g -O2
REM COMMAND_LINE
REM seed 1774008595 -1628385790 388409348 -491392991 -2107156556 768213064 235384462 -1758331472 -1416809378 -1734306231 2070447613 -116400174
REM
REM S 3|1.8|5|6|7|30:31:32(qc=5)
REM O 2|1.5|12|13|15|20:21(qc=5)
REM Li 1|1.3|8|9|10|10U:20(qc=5)
REM Fe 3|2.2|2.0|1.0|8|9|10|40:41:32(qc=5)
REM Fe d:4.0 
REM
CELL 1.54180    6.94217    6.88428    6.88428  120.00000   90.00000   90.00000
LATT -1
SFAC Li O  S  Fe 
Li     1  0.4320220000000 -0.0555210000000  0.4963300000000 1.0  -0.01
Li     1  0.4320220000000 -0.4963300000000 -0.5518520000000 1.0  -0.01
Li     1  0.4320220000000  0.5518520000000  0.0555210000000 1.0  -0.01
Li     1  0.0894780000000 -0.3333330000000  0.3333330000000 1.0  -0.06
O      2 -0.6557600000000 -0.3333330000000  0.3333330000000 1.0  -0.01
S      3 -0.1412600000000  0.3806020000000  0.3643990000000 1.0   0.06
S      3 -0.1412600000000 -0.3643990000000  0.0162020000000 1.0   0.06
S      3 -0.1412600000000 -0.0162020000000 -0.3806020000000 1.0   0.06
S      3  0.3824820000000  0.3333340000000 -0.3333340000000 1.0  -0.79
Fe     4 -0.1137530000000  0.2640280000000 -0.0141260000000 1.0   3.61
Fe     4 -0.1137530000000  0.0141260000000  0.2781530000000 1.0   3.61
Fe     4 -0.1137530000000 -0.2781530000000 -0.2640280000000 1.0   3.61
END
