TITL LFSO-Li2Fe2S2O-201022-054835-67e78d -0.0515 463.277284 -9.50738666E+003 -23.9998 24.1932 21 (P2) n - 1
REM
REM Run started: Sat, 24 Oct 2020 01:51:15 +0100 in /lustre/scratch/uccabz1/launch_tmp/launcher_2020-10-23-01-36-02-595442
REM CASTEP 20.1 from code version af48c487+ pr-geom-scf-spinfix Tue Jun 2 15:39:59 2020 +0100
REM Functional Perdew Burke Ernzerhof Relativity Koelling-Harmon Dispersion off
REM Cut-off 340.0000 eV Grid scale 1.7500 Gmax 16.5316 1/A FBSC none
REM MP grid 4 3 1 Offset 0.000 0.000 0.000 No. kpts 4 Spacing 0.07
REM Total runtime: 156570 s
REM Overall efficiency: 86.9231 %
REM
REM
REM
REM compiler GCC version 4.9.2
REM options -cpp -iprefix /lustre/shared/ucl/apps/gcc/4.9.2/bin/../lib/gcc/x86_64-unknown-linux-gnu/4.9.2/ -mtune=corei7 -march=x86-64 -g -Og
REM COMMAND_LINE
REM seed -1802169933 -2046215313 288003371 -1409857071 1225224470 1221627088 902678226 630891739 1134399798 -683421582 -271400431 1574267876
REM
REM S 3|1.8|5|6|7|30:31:32(qc=5)
REM O 2|1.5|12|13|15|20:21(qc=5)
REM Li 1|1.3|8|9|10|10U:20(qc=5)
REM Fe 3|2.2|2.0|1.0|8|9|10|40:41:32(qc=5)
REM Fe d:4.0 
REM
CELL 1.54180    3.87131    6.80991   18.62007   90.00000  109.30756   90.00000
LATT -1
SFAC Li O  S  Fe 
Li     1 -0.2432140000000 -0.2246660000000  0.2612130000000 1.0  -0.02
Li     1  0.2432140000000 -0.2246660000000 -0.2612130000000 1.0  -0.02
Li     1  0.1614130000000 -0.3410970000000 -0.0815130000000 1.0   0.01
Li     1 -0.1614130000000 -0.3410970000000  0.0815130000000 1.0   0.01
Li     1  0.3852820000000 -0.0674290000000  0.0657360000000 1.0   0.05
Li     1 -0.3852820000000 -0.0674290000000 -0.0657360000000 1.0   0.05
O      2 -0.3451650000000  0.2239700000000 -0.0591320000000 1.0  -0.20
O      2  0.3451650000000  0.2239700000000  0.0591320000000 1.0  -0.20
O      2  0.5000000000000 -0.2439230000000  0.0000000000000 1.0  -0.02
S      3  0.0087760000000  0.4302740000000 -0.2285320000000 1.0  -0.17
S      3 -0.0087760000000  0.4302740000000  0.2285320000000 1.0  -0.17
S      3 -0.2139690000000  0.0367600000000  0.3547200000000 1.0  -0.20
S      3  0.2139690000000  0.0367600000000 -0.3547200000000 1.0  -0.20
S      3 -0.0723590000000 -0.0739150000000 -0.1675340000000 1.0  -0.14
S      3  0.0723590000000 -0.0739150000000  0.1675340000000 1.0  -0.14
Fe     4 -0.4759940000000 -0.8203080000000  0.2084130000000 1.0  -3.77
Fe     4  0.4759940000000 -0.8203080000000 -0.2084130000000 1.0  -3.77
Fe     4  0.1414370000000  0.2314350000000 -0.0675540000000 1.0  -3.79
Fe     4 -0.1414370000000  0.2314350000000  0.0675540000000 1.0  -3.79
Fe     4 -0.2474420000000  0.2137680000000 -0.3334000000000 1.0  -3.77
Fe     4  0.2474420000000  0.2137680000000  0.3334000000000 1.0  -3.77
END
