TITL LFSO-Li4Fe3S4O-201030-044753-4ef44c 0.2765 619.408143 -1.00778078E+004 24.0000 24.5051 24 (I-4) n - 1
REM
REM Run started: Fri, 30 Oct 2020 12:27:43 +0000 in /scratch/scratch/uccabz1/launch_tmp/launcher_2020-10-30-11-54-00-335435
REM CASTEP 19.11| from code version Version unavailable
REM Functional Perdew Burke Ernzerhof Relativity Koelling-Harmon Dispersion off
REM Cut-off 340.0000 eV Grid scale 1.7500 Gmax 16.5316 1/A FBSC none
REM MP grid 2 2 2 Offset 0.000 0.000 0.000 No. kpts 3 Spacing 0.07
REM Total runtime: 20387.9 s
REM Overall efficiency: 75.5455 %
REM
REM
REM
REM compiler GCC version 4.9.2
REM options -cpp -iprefix /lustre/shared/ucl/apps/gcc/4.9.2/bin/../lib/gcc/x86_64-unknown-linux-gnu/4.9.2/ -mtune=corei7 -march=x86-64 -g -Og
REM COMMAND_LINE
REM seed -937602918 -290804297 1065272735 1214405064 131940260 698966575 -1582815135 -1316732632 -1912716725 1995058843 -889990645 -1840224324
REM
REM S 3|1.8|5|6|7|30:31:32(qc=5)
REM O 2|1.5|12|13|15|20:21(qc=5)
REM Li 1|1.3|8|9|10|10U:20(qc=5)
REM Fe 3|2.2|2.0|1.0|8|9|10|40:41:32(qc=5)
REM Fe d:4.0 
REM
CELL 1.54180    8.91028    8.91028   10.02819  116.37609  116.37609   90.00000
LATT -1
SFAC Li O  S  Fe 
Li     1 -0.2860360000000  0.3300690000000 -0.0806060000000 1.0  -0.02
Li     1  0.2054290000000 -0.4106740000000 -0.0806060000000 1.0  -0.02
Li     1  0.4106740000000  0.2860360000000  0.0806060000000 1.0  -0.02
Li     1 -0.3300690000000 -0.2054290000000  0.0806060000000 1.0  -0.02
Li     1 -0.0625030000000 -0.0223610000000 -0.3347600000000 1.0  -0.04
Li     1 -0.2722570000000 -0.3123980000000 -0.3347600000000 1.0  -0.04
Li     1  0.3123980000000  0.0625030000000  0.3347600000000 1.0  -0.04
Li     1  0.0223610000000  0.2722570000000  0.3347600000000 1.0  -0.04
O      2 -0.2328270000000 -0.2328260000000 -0.4656540000000 1.0   0.13
O      2  0.2328260000000  0.2328270000000  0.4656540000000 1.0   0.13
S      3  0.0051050000000 -0.5050830000000 -0.3713350000000 1.0   0.14
S      3  0.6235590000000  0.1337490000000 -0.3713350000000 1.0   0.14
S      3 -0.1337490000000 -0.0051050000000  0.3713350000000 1.0   0.14
S      3  0.5050830000000 -0.6235590000000  0.3713350000000 1.0   0.14
S      3 -0.2831560000000 -0.4146250000000 -0.1441880000000 1.0   0.08
S      3  0.1389680000000  0.2704380000000 -0.1441880000000 1.0   0.08
S      3 -0.2704380000000  0.2831560000000  0.1441880000000 1.0   0.08
S      3  0.4146250000000 -0.1389680000000  0.1441880000000 1.0   0.08
Fe     4 -0.2257050000000  0.5295160000000  0.3962570000000 1.0   3.87
Fe     4 -0.3780390000000 -0.1332580000000  0.3962570000000 1.0   3.87
Fe     4  0.1332580000000  0.2257050000000 -0.3962570000000 1.0   3.87
Fe     4 -0.5295160000000  0.3780390000000 -0.3962570000000 1.0   3.87
Fe     4 -0.3501560000000  0.1498450000000  0.2996890000000 1.0   3.82
Fe     4 -0.1498450000000  0.3501560000000 -0.2996890000000 1.0   3.82
END
