TITL LFSO-Li2Fe4S3O2-201025-112809-6e1cbc -0.0153 324.533385 -5.63147779E+003 13.9790 14.2588 11 (Pmm2) n - 1
REM
REM Run started: Sun, 25 Oct 2020 14:53:07 +0000 in /lustre/scratch/uccabz1/launch_tmp/launcher_2020-10-25-11-28-06-789776
REM CASTEP 20.1 from code version af48c487+ pr-geom-scf-spinfix Tue Jun 2 15:39:59 2020 +0100
REM Functional Perdew Burke Ernzerhof Relativity Koelling-Harmon Dispersion off
REM Cut-off 340.0000 eV Grid scale 1.7500 Gmax 16.5316 1/A FBSC none
REM MP grid 3 2 3 Offset 0.000 0.000 0.000 No. kpts 4 Spacing 0.07
REM Total runtime: 13293.9 s
REM Overall efficiency: 91.4615 %
REM
REM
REM
REM compiler GCC version 4.9.2
REM options -cpp -iprefix /lustre/shared/ucl/apps/gcc/4.9.2/bin/../lib/gcc/x86_64-unknown-linux-gnu/4.9.2/ -mtune=corei7 -march=x86-64 -g -Og
REM COMMAND_LINE
REM seed -1590958615 1970461046 2006533370 939779607 924779989 -674908528 1160758198 1228040203 -759748771 1808219981 -589911387 -353633641
REM
REM S 3|1.8|5|6|7|30:31:32(qc=5)
REM O 2|1.5|12|13|15|20:21(qc=5)
REM Li 1|1.3|8|9|10|10U:20(qc=5)
REM Fe 3|2.2|2.0|1.0|8|9|10|40:41:32(qc=5)
REM Fe d:4.0 
REM
CELL 1.54180    6.72221    8.00649    6.02983   90.00000   90.00000   90.00000
LATT -1
SFAC Li O  S  Fe 
Li     1 -0.0852820000000  0.0000000000000 -0.3150250000000 1.0  -0.06
Li     1 -0.0852820000000  0.0000000000000  0.3150250000000 1.0  -0.06
O      2 -0.0555670000000  0.1790600000000  0.5000000000000 1.0   0.08
O      2 -0.0555670000000 -0.1790600000000 -0.5000000000000 1.0   0.08
S      3  0.3596650000000 -0.5000000000000  0.3233010000000 1.0   0.13
S      3  0.3596650000000 -0.5000000000000 -0.3233010000000 1.0   0.13
S      3 -0.0954990000000  0.5000000000000  0.0000000000000 1.0   0.07
Fe     4  0.0633470000000  0.3318760000000  0.2879870000000 1.0   3.39
Fe     4  0.0633470000000 -0.3318760000000 -0.2879870000000 1.0   3.39
Fe     4  0.0633470000000 -0.3318760000000  0.2879870000000 1.0   3.39
Fe     4  0.0633470000000  0.3318760000000 -0.2879870000000 1.0   3.39
END
