TITL LFSO-Li2Fe4S3O2-201026-045918-c65b04 0.0466 740.046501 -1.12623354E+004 31.9999 32.6153 22 (Imm2) n - 1
REM
REM Run started: Mon, 26 Oct 2020 13:51:46 +0000 in /scratch/scratch/uccabz1/launch_tmp/launcher_2020-10-26-04-59-16-802292
REM CASTEP 19.11| from code version Version unavailable
REM Functional Perdew Burke Ernzerhof Relativity Koelling-Harmon Dispersion off
REM Cut-off 340.0000 eV Grid scale 1.7500 Gmax 16.5316 1/A FBSC none
REM MP grid 2 2 2 Offset 0.000 0.000 0.000 No. kpts 3 Spacing 0.07
REM Total runtime: 36196.9 s
REM Overall efficiency: 74.4 %
REM
REM
REM
REM compiler GCC version 4.9.2
REM options -cpp -iprefix /scratch/UCL/applications/gcc/4.9.2/bin/../lib/gcc/x86_64-unknown-linux-gnu/4.9.2/ -mtune=corei7 -march=x86-64 -g -O2
REM COMMAND_LINE
REM seed 625553855 984028642 -1967119913 1633748362 442783953 1001529367 -1320156979 -1281701803 -382394463 1944748564 1774589877 2142794652
REM
REM S 3|1.8|5|6|7|30:31:32(qc=5)
REM O 2|1.5|12|13|15|20:21(qc=5)
REM Li 1|1.3|8|9|10|10U:20(qc=5)
REM Fe 3|2.2|2.0|1.0|8|9|10|40:41:32(qc=5)
REM Fe d:4.0 
REM
CELL 1.54180   12.13763   10.17935   10.17935   51.79031   53.40257   53.40257
LATT -1
SFAC Li O  S  Fe 
Li     1  0.1765430000000 -0.2739840000000  0.2666040000000 1.0  -0.03
Li     1 -0.1691630000000  0.2666040000000 -0.2739840000000 1.0  -0.03
Li     1  0.1765430000000  0.2666040000000 -0.2739840000000 1.0  -0.03
Li     1 -0.1691630000000 -0.2739840000000  0.2666040000000 1.0  -0.03
O      2 -0.1631590000000  0.1998640000000 -0.4094310000000 1.0   0.21
O      2  0.3727260000000 -0.4094310000000  0.1998640000000 1.0   0.21
O      2 -0.1631590000000 -0.4094310000000  0.1998640000000 1.0   0.21
O      2  0.3727260000000  0.1998640000000 -0.4094310000000 1.0   0.21
S      3  0.1775250000000 -0.6296680000000 -0.1244780000000 1.0   0.10
S      3 -0.4233790000000  0.8755220000000  0.3703320000000 1.0   0.10
S      3  0.1775250000000 -0.1244780000000  0.3703320000000 1.0   0.10
S      3 -0.4233790000000  0.3703320000000 -0.1244780000000 1.0   0.10
S      3  0.1350870000000  0.2430660000000 -0.5132400000000 1.0   0.07
S      3  0.1350870000000 -0.5132400000000  0.2430660000000 1.0   0.07
Fe     4 -0.3692630000000  0.3269650000000 -0.3590950000000 1.0   3.87
Fe     4  0.4013930000000 -0.3590950000000  0.3269650000000 1.0   3.87
Fe     4 -0.3692630000000  0.6409050000000  0.3269650000000 1.0   3.87
Fe     4  0.4013930000000 -0.6730350000000 -0.3590950000000 1.0   3.87
Fe     4  0.3988530000000 -0.5265850000000  0.0922770000000 1.0   3.81
Fe     4  0.0354550000000  0.0922770000000  0.4734150000000 1.0   3.81
Fe     4  0.3988530000000  0.0922770000000  0.4734150000000 1.0   3.81
Fe     4  0.0354550000000 -0.5265850000000  0.0922770000000 1.0   3.81
END
