TITL LFSO-Li2Fe4S4O-201024-131007-422b13 -0.5558 759.076990 -1.09984690E+004 0.713818E-03 31.3814 22 (Cmm2) n - 1
REM
REM Run started: Sun, 25 Oct 2020 01:07:20 +0000 in /lustre/scratch/uccabz1/launch_tmp/launcher_2020-10-25-00-27-12-998938
REM CASTEP 20.1 from code version af48c487+ pr-geom-scf-spinfix Tue Jun 2 15:39:59 2020 +0100
REM Functional Perdew Burke Ernzerhof Relativity Koelling-Harmon Dispersion off
REM Cut-off 340.0000 eV Grid scale 1.7500 Gmax 16.5316 1/A FBSC none
REM MP grid 2 2 4 Offset 0.000 0.000 0.000 No. kpts 4 Spacing 0.07
REM Total runtime: 34332.7 s
REM Overall efficiency: 76.8 %
REM
REM
REM
REM compiler GCC version 4.9.2
REM options -cpp -iprefix /lustre/shared/ucl/apps/gcc/4.9.2/bin/../lib/gcc/x86_64-unknown-linux-gnu/4.9.2/ -mtune=corei7 -march=x86-64 -g -Og
REM COMMAND_LINE
REM seed -342349364 1006121581 1013998761 -267855307 1743716196 -1270245274 -889375670 277327674 705990039 2011711960 300159093 1723827395
REM
REM S 3|1.8|5|6|7|30:31:32(qc=5)
REM O 2|1.5|12|13|15|20:21(qc=5)
REM Li 1|1.3|8|9|10|10U:20(qc=5)
REM Fe 3|2.2|2.0|1.0|8|9|10|40:41:32(qc=5)
REM Fe d:4.0 
REM
CELL 1.54180   13.56597   13.56597    4.30821   90.00000   90.00000  106.78640
LATT -1
SFAC Li O  S  Fe 
Li     1 -0.1849950000000 -0.4239790000000  0.0364150000000 1.0   0.04
Li     1  0.1849950000000  0.4239790000000  0.0364150000000 1.0   0.04
Li     1  0.4239790000000  0.1849950000000  0.0364150000000 1.0   0.04
Li     1 -0.4239790000000 -0.1849950000000  0.0364150000000 1.0   0.04
O      2 -0.2320270000000  0.2320270000000 -0.4494690000000 1.0   0.29
O      2  0.2320270000000 -0.2320270000000 -0.4494690000000 1.0   0.29
S      3  0.2956480000000 -0.0129770000000  0.0733000000000 1.0  -0.11
S      3 -0.2956480000000  0.0129770000000  0.0733000000000 1.0  -0.11
S      3  0.0129770000000 -0.2956480000000  0.0733000000000 1.0  -0.11
S      3 -0.0129770000000  0.2956480000000  0.0733000000000 1.0  -0.11
S      3  0.4871370000000  0.1986640000000  0.5334870000000 1.0  -0.14
S      3 -0.4871370000000 -0.1986640000000  0.5334870000000 1.0  -0.14
S      3 -0.1986640000000 -0.4871370000000  0.5334870000000 1.0  -0.14
S      3  0.1986640000000  0.4871370000000  0.5334870000000 1.0  -0.14
Fe     4 -0.3430060000000 -0.0472730000000 -0.4375490000000 1.0  -3.74
Fe     4  0.3430060000000  0.0472730000000 -0.4375490000000 1.0  -3.74
Fe     4  0.0472730000000  0.3430060000000 -0.4375490000000 1.0  -3.74
Fe     4 -0.0472730000000 -0.3430060000000 -0.4375490000000 1.0  -3.74
Fe     4  0.8482540000000  0.3602480000000 -0.5611960000000 1.0   3.81
Fe     4 -0.8482540000000 -0.3602480000000 -0.5611960000000 1.0   3.81
Fe     4  0.6397520000000  0.1517460000000 -0.5611960000000 1.0   3.81
Fe     4 -0.6397520000000 -0.1517460000000 -0.5611960000000 1.0   3.81
END
