TITL LFSO-Li6FeSO3-201028-054625-50c1a7 -0.1342 394.341173 -7.35456899E+003 7.20057 7.42434 22 (Pcc2) n - 1
REM
REM Run started: Wed, 28 Oct 2020 07:06:09 +0000 in /lustre/scratch/uccabz1/launch_tmp/launcher_2020-10-28-05-46-24-198957
REM CASTEP 20.1 from code version af48c487+ pr-geom-scf-spinfix Tue Jun 2 15:39:59 2020 +0100
REM Functional Perdew Burke Ernzerhof Relativity Koelling-Harmon Dispersion off
REM Cut-off 340.0000 eV Grid scale 1.7500 Gmax 16.5316 1/A FBSC none
REM MP grid 3 3 2 Offset 0.000 0.000 0.000 No. kpts 4 Spacing 0.07
REM Total runtime: 5298.58 s
REM Overall efficiency: 75.1667 %
REM
REM
REM
REM compiler GCC version 4.9.2
REM options -cpp -iprefix /lustre/shared/ucl/apps/gcc/4.9.2/bin/../lib/gcc/x86_64-unknown-linux-gnu/4.9.2/ -mtune=corei7 -march=x86-64 -g -Og
REM COMMAND_LINE
REM seed 191636440 -1484057523 313674680 -1322782048 -1118861542 127645501 977194769 -1188608846 969445958 -700406050 -42183347 -1104494435
REM
REM S 3|1.8|5|6|7|30:31:32(qc=5)
REM O 2|1.5|12|13|15|20:21(qc=5)
REM Li 1|1.3|8|9|10|10U:20(qc=5)
REM Fe 3|2.2|2.0|1.0|8|9|10|40:41:32(qc=5)
REM Fe d:4.0 
REM
CELL 1.54180    6.59232    6.19227    9.66015   90.00000   90.00000   90.00000
LATT -1
SFAC Li O  S  Fe 
Li     1  0.2679670000000  0.3790690000000 -0.1722780000000 1.0   0.00
Li     1 -0.2679670000000  0.3790690000000  0.1722780000000 1.0   0.00
Li     1 -0.2679670000000 -0.1209310000000 -0.1722780000000 1.0   0.00
Li     1  0.2679670000000 -0.1209310000000  0.1722780000000 1.0   0.00
Li     1  0.0368350000000 -0.4245140000000  0.2505830000000 1.0  -0.03
Li     1 -0.0368350000000 -0.4245140000000 -0.2505830000000 1.0  -0.03
Li     1 -0.0368350000000  0.0754860000000  0.2505830000000 1.0  -0.03
Li     1  0.0368350000000  0.0754860000000 -0.2505830000000 1.0  -0.03
Li     1 -0.3463040000000  0.2350800000000 -0.0445960000000 1.0  -0.01
Li     1  0.3463040000000  0.2350800000000  0.0445960000000 1.0  -0.01
Li     1  0.3463040000000 -0.2649200000000 -0.0445960000000 1.0  -0.01
Li     1 -0.3463040000000 -0.2649200000000  0.0445960000000 1.0  -0.01
O      2  0.1093710000000 -0.1564850000000  0.3236140000000 1.0   0.07
O      2 -0.1093710000000 -0.1564850000000 -0.3236140000000 1.0   0.07
O      2 -0.1093710000000  0.3435150000000  0.3236140000000 1.0   0.07
O      2  0.1093710000000  0.3435150000000 -0.3236140000000 1.0   0.07
O      2  0.5000000000000 -0.0224240000000  0.0000000000000 1.0   0.00
O      2  0.5000000000000 -0.5224240000000  0.0000000000000 1.0   0.00
S      3  0.0000000000000  0.1650730000000  0.0000000000000 1.0   0.00
S      3  0.0000000000000 -0.3349270000000  0.0000000000000 1.0   0.00
Fe     4  0.0000000000000 -0.1778190000000 -0.5000000000000 1.0   3.53
Fe     4  0.0000000000000  0.3221810000000 -0.5000000000000 1.0   3.53
END
