TITL LFSO-Li5FeSO3-201026-074721-8597dc 0.5200 527.194903 -6.95608851E+003 1.84426 7.27018 20 (R3) n - 1
REM
REM Run started: Wed, 28 Oct 2020 02:23:32 +0000 in /scratch/scratch/uccabz1/launch_tmp/launcher_2020-10-28-01-33-34-506947
REM CASTEP 19.11| from code version Version unavailable
REM Functional Perdew Burke Ernzerhof Relativity Koelling-Harmon Dispersion off
REM Cut-off 340.0000 eV Grid scale 1.7500 Gmax 16.5316 1/A FBSC none
REM MP grid 3 3 3 Offset 0.000 0.000 0.000 No. kpts 6 Spacing 0.07
REM Total runtime: 119936 s
REM Overall efficiency: 88.6923 %
REM
REM
REM
REM compiler GCC version 4.9.2
REM options -cpp -iprefix /scratch/UCL/applications/gcc/4.9.2/bin/../lib/gcc/x86_64-unknown-linux-gnu/4.9.2/ -mtune=corei7 -march=x86-64 -g -O2
REM COMMAND_LINE
REM seed 788539211 1614536820 -11113152 1476330901 -53801918 -328944290 -592492605 1328342050 -1859771043 546606408 1356350844 1060754227
REM
REM S 3|1.8|5|6|7|30:31:32(qc=5)
REM O 2|1.5|12|13|15|20:21(qc=5)
REM Li 1|1.3|8|9|10|10U:20(qc=5)
REM Fe 3|2.2|2.0|1.0|8|9|10|40:41:32(qc=5)
REM Fe d:4.0 
REM
CELL 1.54180   16.93375   16.93375   16.93375   20.62048   20.62048   20.62048
LATT -1
SFAC Li O  S  Fe 
Li     1 -0.1294240000000 -0.3274660000000  0.2718440000000 1.0  -0.02
Li     1 -0.3274660000000  0.2718440000000 -0.1294240000000 1.0  -0.02
Li     1  0.2718440000000 -0.1294240000000 -0.3274660000000 1.0  -0.02
Li     1 -0.2087190000000  0.6393250000000  0.1899950000000 1.0   0.00
Li     1  0.6393250000000  0.1899950000000 -0.2087190000000 1.0   0.00
Li     1  0.1899950000000 -0.2087190000000  0.6393250000000 1.0   0.00
Li     1  0.2264810000000 -0.3100570000000  0.0447010000000 1.0   0.01
Li     1 -0.3100570000000  0.0447010000000  0.2264810000000 1.0   0.01
Li     1  0.0447010000000  0.2264810000000 -0.3100570000000 1.0   0.01
Li     1 -0.1702300000000 -0.1702300000000 -0.1702300000000 1.0  -0.02
O      2  0.3185130000000 -0.0683240000000 -0.3135780000000 1.0   0.14
O      2 -0.0683240000000 -0.3135780000000  0.3185130000000 1.0   0.14
O      2 -0.3135780000000  0.3185130000000 -0.0683240000000 1.0   0.14
O      2  0.0436950000000 -0.0153300000000 -0.5000570000000 1.0   0.02
O      2 -0.0153300000000 -0.5000570000000  0.0436950000000 1.0   0.02
O      2 -0.5000570000000  0.0436950000000 -0.0153300000000 1.0   0.02
S      3 -0.0913210000000 -0.0913210000000 -0.0913210000000 1.0  -0.01
S      3 -0.4284300000000 -0.4284300000000 -0.4284300000000 1.0  -0.01
Fe     4 -0.3530700000000 -0.3530700000000 -0.3530700000000 1.0   3.65
Fe     4  0.1748730000000  0.1748730000000  0.1748730000000 1.0  -2.33
END
