TITL LFSO-Li2Fe3S2O2-201022-164949-502723 0.0052 157.359163 -4.46945193E+003 12.0000 12.1365 9 (R3) n - 1
REM
REM Run started: Thu, 22 Oct 2020 19:53:11 +0100 in /lustre/scratch/uccabz1/launch_tmp/launcher_2020-10-22-15-49-48-275066
REM CASTEP 20.1 from code version af48c487+ pr-geom-scf-spinfix Tue Jun 2 15:39:59 2020 +0100
REM Functional Perdew Burke Ernzerhof Relativity Koelling-Harmon Dispersion off
REM Cut-off 340.0000 eV Grid scale 1.7500 Gmax 16.5316 1/A FBSC none
REM MP grid 3 3 3 Offset 0.000 0.000 0.000 No. kpts 6 Spacing 0.07
REM Total runtime: 11888.1 s
REM Overall efficiency: 96.4444 %
REM
REM
REM
REM compiler GCC version 4.9.2
REM options -cpp -iprefix /lustre/shared/ucl/apps/gcc/4.9.2/bin/../lib/gcc/x86_64-unknown-linux-gnu/4.9.2/ -mtune=corei7 -march=x86-64 -g -Og
REM COMMAND_LINE
REM seed -1531347979 1853198205 -1798048657 797611652 301763288 1962923787 302217185 1817202201 72954857 2110254489 -64827595 -1236190324
REM
REM S 3|1.8|5|6|7|30:31:32(qc=5)
REM O 2|1.5|12|13|15|20:21(qc=5)
REM Li 1|1.3|8|9|10|10U:20(qc=5)
REM Fe 3|2.2|2.0|1.0|8|9|10|40:41:32(qc=5)
REM Fe d:4.0 
REM
CELL 1.54180    6.01464    6.01464    6.10629   60.49528   60.49528   60.00000
LATT -1
SFAC Li O  S  Fe 
Li     1  0.1352430000000  0.1352430000000 -0.4057290000000 1.0  -0.07
Li     1  0.4460680000000  0.4460680000000 -0.3382050000000 1.0  -0.06
O      2  0.0162430000000  0.0162430000000 -0.0487290000000 1.0   0.16
O      2 -0.4319010000000 -0.4319010000000  0.2957020000000 1.0   0.13
S      3 -0.1859760000000 -0.1859760000000 -0.4420720000000 1.0   0.19
S      3  0.2925530000000  0.2925530000000  0.1223420000000 1.0   0.10
Fe     4  0.2600780000000  0.7069700000000  0.1671430000000 1.0   3.85
Fe     4 -0.1341900000000  0.2600780000000  0.1671430000000 1.0   3.85
Fe     4  0.7069700000000 -0.1341900000000  0.1671430000000 1.0   3.85
END
