TITL LFSO-Li3FeS2O-201024-212826-4f2276 -0.0270 218.607944 -5.01536635E+003 7.90015 8.07189 14 (P21) n - 1
REM
REM Run started: Sat, 24 Oct 2020 23:05:02 +0100 in /lustre/scratch/uccabz1/launch_tmp/launcher_2020-10-24-20-28-24-706678
REM CASTEP 20.1 from code version af48c487+ pr-geom-scf-spinfix Tue Jun 2 15:39:59 2020 +0100
REM Functional Perdew Burke Ernzerhof Relativity Koelling-Harmon Dispersion off
REM Cut-off 340.0000 eV Grid scale 1.7500 Gmax 16.5316 1/A FBSC none
REM MP grid 2 5 2 Offset 0.000 0.000 0.000 No. kpts 5 Spacing 0.07
REM Total runtime: 6140.47 s
REM Overall efficiency: 79.7692 %
REM
REM
REM
REM compiler GCC version 4.9.2
REM options -cpp -iprefix /lustre/shared/ucl/apps/gcc/4.9.2/bin/../lib/gcc/x86_64-unknown-linux-gnu/4.9.2/ -mtune=corei7 -march=x86-64 -g -Og
REM COMMAND_LINE
REM seed -1155848869 612042174 1250077158 1999776643 2013107035 -1121582685 1161603813 -803987490 -508277447 813343289 2133947504 -304879157
REM
REM S 3|1.8|5|6|7|30:31:32(qc=5)
REM O 2|1.5|12|13|15|20:21(qc=5)
REM Li 1|1.3|8|9|10|10U:20(qc=5)
REM Fe 3|2.2|2.0|1.0|8|9|10|40:41:32(qc=5)
REM Fe d:4.0 
REM
CELL 1.54180    7.24678    3.02840    9.96557   88.28575   90.00000   90.00000
LATT -1
SFAC Li O  S  Fe 
Li     1 -0.0828080000000  0.5948100000000  0.0495090000000 1.0  -0.02
Li     1  0.4171920000000 -0.5948100000000 -0.0495090000000 1.0  -0.02
Li     1 -0.0865500000000 -0.5291020000000 -0.4356440000000 1.0  -0.03
Li     1  0.4134500000000  0.5291020000000  0.4356440000000 1.0  -0.03
Li     1  0.0688810000000 -0.4065900000000  0.2663850000000 1.0   0.03
Li     1 -0.4311190000000  0.4065900000000 -0.2663850000000 1.0   0.03
O      2  0.4341490000000 -0.0910220000000 -0.1762620000000 1.0   0.15
O      2 -0.0658510000000  0.0910220000000  0.1762620000000 1.0   0.15
S      3 -0.0528560000000  0.4185060000000 -0.1847000000000 1.0   0.01
S      3 -0.5528560000000 -0.4185060000000  0.1847000000000 1.0   0.01
S      3 -0.3364940000000  0.0073710000000 -0.4971260000000 1.0   0.08
S      3  0.1635060000000 -0.0073710000000  0.4971260000000 1.0   0.08
Fe     4  0.2003420000000 -0.0923950000000 -0.2614380000000 1.0   3.74
Fe     4 -0.2996580000000  0.0923950000000  0.2614380000000 1.0   3.74
END
