TITL LFSO-Li3FeS2O-201025-025538-7017a1 0.0597 411.759021 -7.51936619E+003 9.15485 13.6094 21 (R3) n - 1
REM
REM Run started: Sun, 25 Oct 2020 16:56:28 +0000 in /lustre/scratch/uccabz1/launch_tmp/launcher_2020-10-25-02-55-37-043803
REM CASTEP 20.1 from code version af48c487+ pr-geom-scf-spinfix Tue Jun 2 15:39:59 2020 +0100
REM Functional Perdew Burke Ernzerhof Relativity Koelling-Harmon Dispersion off
REM Cut-off 340.0000 eV Grid scale 1.7500 Gmax 16.5316 1/A FBSC none
REM MP grid 2 2 3 Offset 0.000 0.000 0.000 No. kpts 6 Spacing 0.07
REM Total runtime: 55637.1 s
REM Overall efficiency: 98.1667 %
REM
REM
REM
REM compiler GCC version 4.9.2
REM options -cpp -iprefix /lustre/shared/ucl/apps/gcc/4.9.2/bin/../lib/gcc/x86_64-unknown-linux-gnu/4.9.2/ -mtune=corei7 -march=x86-64 -g -Og
REM COMMAND_LINE
REM seed -1502859168 120627915 915251553 1834728777 1686878573 1174803757 1430664949 1856975081 1502545090 1295489771 1130602151 -2079191084
REM
REM S 3|1.8|5|6|7|30:31:32(qc=5)
REM O 2|1.5|12|13|15|20:21(qc=5)
REM Li 1|1.3|8|9|10|10U:20(qc=5)
REM Fe 3|2.2|2.0|1.0|8|9|10|40:41:32(qc=5)
REM Fe d:4.0 
REM
CELL 1.54180    9.34152    9.34152    7.66644   52.46488   52.46488   60.00000
LATT -1
SFAC Li O  S  Fe 
Li     1 -0.5727060000000  0.6455720000000 -0.2494050000000 1.0   0.05
Li     1  0.1765400000000 -0.5727060000000 -0.2494050000000 1.0   0.05
Li     1  0.6455720000000  0.1765400000000 -0.2494050000000 1.0   0.05
Li     1 -0.3646230000000 -0.0281910000000 -0.3533150000000 1.0  -0.06
Li     1 -0.2538710000000 -0.3646230000000 -0.3533150000000 1.0  -0.06
Li     1 -0.0281910000000 -0.2538710000000 -0.3533150000000 1.0  -0.06
Li     1  0.5276720000000 -0.0528790000000  0.4030490000000 1.0  -0.04
Li     1  0.1221590000000  0.5276720000000  0.4030490000000 1.0  -0.04
Li     1 -0.0528790000000  0.1221590000000  0.4030490000000 1.0  -0.04
O      2 -0.1856280000000 -0.0467850000000 -0.2925130000000 1.0   0.08
O      2 -0.4750730000000 -0.1856280000000 -0.2925130000000 1.0   0.08
O      2 -0.0467850000000 -0.4750730000000 -0.2925130000000 1.0   0.08
S      3  0.1210150000000 -0.3090060000000  0.0297220000000 1.0  -0.03
S      3  0.1582690000000  0.1210150000000  0.0297220000000 1.0  -0.03
S      3 -0.3090060000000  0.1582690000000  0.0297220000000 1.0  -0.03
S      3 -0.3493370000000 -0.3525900000000  0.3584560000000 1.0  -0.70
S      3  0.3434710000000 -0.3493370000000  0.3584560000000 1.0  -0.70
S      3 -0.3525900000000  0.3434710000000  0.3584560000000 1.0  -0.70
Fe     4  0.2998830000000 -0.1594690000000 -0.0062520000000 1.0   3.75
Fe     4 -0.1341620000000  0.2998830000000 -0.0062520000000 1.0   3.75
Fe     4 -0.1594690000000 -0.1341620000000 -0.0062520000000 1.0   3.75
END
