TITL LFSO-LiFe3S4O-201028-122930-3f9b1c 0.0724 160.435259 -4.43756445E+003 9.02710 11.0713 9 (Cm) n - 1
REM
REM Run started: Wed, 28 Oct 2020 14:11:32 +0000 in /lustre/scratch/uccabz1/launch_tmp/launcher_2020-10-28-12-29-28-658482
REM CASTEP 20.1 from code version af48c487+ pr-geom-scf-spinfix Tue Jun 2 15:39:59 2020 +0100
REM Functional Perdew Burke Ernzerhof Relativity Koelling-Harmon Dispersion off
REM Cut-off 340.0000 eV Grid scale 1.7500 Gmax 16.5316 1/A FBSC none
REM MP grid 3 3 5 Offset 0.000 0.000 0.000 No. kpts 16 Spacing 0.07
REM Total runtime: 6601.69 s
REM Overall efficiency: 89.5 %
REM
REM
REM
REM compiler GCC version 4.9.2
REM options -cpp -iprefix /lustre/shared/ucl/apps/gcc/4.9.2/bin/../lib/gcc/x86_64-unknown-linux-gnu/4.9.2/ -mtune=corei7 -march=x86-64 -g -Og
REM COMMAND_LINE
REM seed -398831650 2108778398 1348047947 -35798198 642053527 -1663031916 -1335885573 -175770127 -1155698338 80336216 -22150515 1188813289
REM
REM S 3|1.8|5|6|7|30:31:32(qc=5)
REM O 2|1.5|12|13|15|20:21(qc=5)
REM Li 1|1.3|8|9|10|10U:20(qc=5)
REM Fe 3|2.2|2.0|1.0|8|9|10|40:41:32(qc=5)
REM Fe d:4.0 
REM
CELL 1.54180    7.73482    7.73482    3.67479   99.52842   99.52842  127.99426
LATT -1
SFAC Li O  S  Fe 
Li     1 -0.2527920000000 -0.2527920000000 -0.1272500000000 1.0  -0.01
O      2  0.4536000000000  0.4536000000000 -0.3087080000000 1.0  -0.02
S      3  0.3023150000000  0.0258140000000 -0.1020850000000 1.0  -0.35
S      3  0.0258140000000  0.3023150000000 -0.1020850000000 1.0  -0.35
S      3 -0.4546780000000 -0.1347710000000  0.3879490000000 1.0  -0.28
S      3 -0.1347710000000 -0.4546780000000  0.3879490000000 1.0  -0.28
Fe     4  0.1473330000000 -0.3261670000000  0.0169200000000 1.0   3.43
Fe     4 -0.3261670000000  0.1473330000000  0.0169200000000 1.0   3.43
Fe     4  0.3899760000000  0.3899760000000  0.1498240000000 1.0   3.46
END
