TITL LFSO-Li5FeS2O2-201025-115008-ab0b23 0.0833 391.575450 -6.68842330E+003 10.0000 10.0997 20 (P4) n - 1
REM
REM Run started: Sun, 25 Oct 2020 12:54:19 +0000 in /lustre/scratch/uccabz1/launch_tmp/launcher_2020-10-25-11-50-06-312401
REM CASTEP 20.1 from code version af48c487+ pr-geom-scf-spinfix Tue Jun 2 15:39:59 2020 +0100
REM Functional Perdew Burke Ernzerhof Relativity Koelling-Harmon Dispersion off
REM Cut-off 340.0000 eV Grid scale 1.7500 Gmax 16.5316 1/A FBSC none
REM MP grid 2 2 3 Offset 0.000 0.000 0.000 No. kpts 2 Spacing 0.07
REM Total runtime: 3973.59 s
REM Overall efficiency: 73 %
REM
REM
REM
REM compiler GCC version 4.9.2
REM options -cpp -iprefix /lustre/shared/ucl/apps/gcc/4.9.2/bin/../lib/gcc/x86_64-unknown-linux-gnu/4.9.2/ -mtune=corei7 -march=x86-64 -g -Og
REM COMMAND_LINE
REM seed 1894786099 1595479242 1459074762 -426594952 -1639480296 1622684542 -1779824098 -949007595 -1110505651 269010564 76785378 2106101063
REM
REM S 3|1.8|5|6|7|30:31:32(qc=5)
REM O 2|1.5|12|13|15|20:21(qc=5)
REM Li 1|1.3|8|9|10|10U:20(qc=5)
REM Fe 3|2.2|2.0|1.0|8|9|10|40:41:32(qc=5)
REM Fe d:4.0 
REM
CELL 1.54180    8.71288    8.71288    5.15812   90.00000   90.00000   90.00000
LATT -1
SFAC Li O  S  Fe 
Li     1 -0.2431220000000 -0.3615920000000  0.1159140000000 1.0  -0.02
Li     1  0.2431220000000  0.3615920000000  0.1159140000000 1.0  -0.02
Li     1 -0.3615920000000  0.2431220000000  0.1159140000000 1.0  -0.02
Li     1  0.3615920000000 -0.2431220000000  0.1159140000000 1.0  -0.02
Li     1  0.1175430000000 -0.2415020000000 -0.5239910000000 1.0   0.04
Li     1 -0.1175430000000  0.2415020000000 -0.5239910000000 1.0   0.04
Li     1 -0.2415020000000 -0.1175430000000 -0.5239910000000 1.0   0.04
Li     1  0.2415020000000  0.1175430000000 -0.5239910000000 1.0   0.04
Li     1  0.0000000000000  0.5000000000000 -0.3831220000000 1.0  -0.05
Li     1 -0.5000000000000  0.0000000000000 -0.3831220000000 1.0  -0.05
O      2  0.0739320000000  0.3360170000000  0.3599810000000 1.0   0.29
O      2 -0.0739320000000 -0.3360170000000  0.3599810000000 1.0   0.29
O      2  0.3360170000000 -0.0739320000000  0.3599810000000 1.0   0.29
O      2 -0.3360170000000  0.0739320000000  0.3599810000000 1.0   0.29
S      3 -0.3980080000000 -0.1915060000000 -0.1084190000000 1.0   0.26
S      3  0.3980080000000  0.1915060000000 -0.1084190000000 1.0   0.26
S      3 -0.1915060000000  0.3980080000000 -0.1084190000000 1.0   0.26
S      3  0.1915060000000 -0.3980080000000 -0.1084190000000 1.0   0.26
Fe     4  0.0000000000000 -0.5000000000000  0.1469530000000 1.0   3.89
Fe     4 -0.5000000000000  0.0000000000000  0.1469530000000 1.0   3.89
END
