TITL LFSO-Li2Fe4S3O2-201025-155009-dd9bcf 0.3428 268.890120 -5.63320575E+003 15.9970 16.2076 11 (Cm) n - 1
REM
REM Run started: Mon, 26 Oct 2020 01:31:00 +0000 in /scratch/scratch/uccabz1/launch_tmp/launcher_2020-10-26-01-23-16-174086
REM CASTEP 19.11| from code version Version unavailable
REM Functional Perdew Burke Ernzerhof Relativity Koelling-Harmon Dispersion off
REM Cut-off 340.0000 eV Grid scale 1.7500 Gmax 16.5316 1/A FBSC none
REM MP grid 2 3 4 Offset 0.000 0.000 0.000 No. kpts 12 Spacing 0.07
REM Total runtime: 30117 s
REM Overall efficiency: 89.3846 %
REM
REM
REM
REM compiler GCC version 4.9.2
REM options -cpp -iprefix /scratch/UCL/applications/gcc/4.9.2/bin/../lib/gcc/x86_64-unknown-linux-gnu/4.9.2/ -mtune=corei7 -march=x86-64 -g -O2
REM COMMAND_LINE
REM seed 634718735 2095150991 770085271 -42947885 1227149546 -88377343 -276153826 -281921660 -560596731 -382646641 -1232278578 -40384338
REM
REM S 3|1.8|5|6|7|30:31:32(qc=5)
REM O 2|1.5|12|13|15|20:21(qc=5)
REM Li 1|1.3|8|9|10|10U:20(qc=5)
REM Fe 3|2.2|2.0|1.0|8|9|10|40:41:32(qc=5)
REM Fe d:4.0 
REM
CELL 1.54180   10.91813    8.78178    4.76123  121.08885   90.00003  128.43556
LATT -1
SFAC Li O  S  Fe 
Li     1  0.2980000000000 -0.0843340000000  0.2263990000000 1.0  -0.06
Li     1 -0.3823340000000 -0.0843340000000  0.2263990000000 1.0  -0.06
O      2 -0.2393190000000 -0.0882320000000  0.0240960000000 1.0   0.18
O      2  0.1510870000000 -0.0882320000000  0.0240960000000 1.0   0.18
S      3  0.0340050000000 -0.4603470000000  0.1395020000000 1.0   0.12
S      3 -0.4943520000000 -0.4603470000000  0.1395020000000 1.0   0.12
S      3 -0.3871560000000  0.2256880000000 -0.6538370000000 1.0   0.10
Fe     4 -0.0702760000000  0.5580070000000 -0.3226530000000 1.0   3.83
Fe     4  0.6282830000000  0.5580070000000 -0.3226530000000 1.0   3.83
Fe     4 -0.1220270000000  0.1549610000000 -0.0192440000000 1.0   3.87
Fe     4  0.2769880000000  0.1549610000000 -0.0192440000000 1.0   3.87
END
