TITL LFSO-LiFe3S4O-201028-103654-9f5dd8 0.2709 334.089700 -8.87450582E+003 23.9999 24.3327 18 (R3) n - 1
REM
REM Run started: Wed, 28 Oct 2020 23:44:42 +0000 in /scratch/scratch/uccabz1/launch_tmp/launcher_2020-10-28-22-36-04-605251
REM CASTEP 19.11| from code version Version unavailable
REM Functional Perdew Burke Ernzerhof Relativity Koelling-Harmon Dispersion off
REM Cut-off 340.0000 eV Grid scale 1.7500 Gmax 16.5316 1/A FBSC none
REM MP grid 3 3 2 Offset 0.000 0.000 0.000 No. kpts 7 Spacing 0.07
REM Total runtime: 46947.6 s
REM Overall efficiency: 98 %
REM
REM
REM
REM compiler GCC version 4.9.2
REM options -cpp -iprefix /lustre/shared/ucl/apps/gcc/4.9.2/bin/../lib/gcc/x86_64-unknown-linux-gnu/4.9.2/ -mtune=corei7 -march=x86-64 -g -Og
REM COMMAND_LINE
REM seed -1039528936 -446007807 1174960683 1859132682 -231360640 -1371083735 938978440 1583353979 1603393406 -1609366043 -605051746 796360498
REM
REM S 3|1.8|5|6|7|30:31:32(qc=5)
REM O 2|1.5|12|13|15|20:21(qc=5)
REM Li 1|1.3|8|9|10|10U:20(qc=5)
REM Fe 3|2.2|2.0|1.0|8|9|10|40:41:32(qc=5)
REM Fe d:4.0 
REM
CELL 1.54180    7.23422    7.23422    8.47242   64.72726   64.72726   60.00000
LATT -1
SFAC Li O  S  Fe 
Li     1 -0.3328760000000 -0.3328760000000 -0.0013720000000 1.0  -0.12
Li     1  0.0155060000000  0.0155060000000 -0.0465170000000 1.0  -0.06
O      2 -0.2345700000000 -0.2345700000000 -0.2962900000000 1.0   0.22
O      2 -0.4347780000000 -0.4347780000000  0.3043350000000 1.0   0.14
S      3  0.4349420000000  0.0513950000000 -0.0148410000000 1.0   0.12
S      3  0.0513950000000  0.5285040000000 -0.0148410000000 1.0   0.12
S      3  0.5285040000000  0.4349420000000 -0.0148410000000 1.0   0.12
S      3  0.1374180000000 -0.2233900000000 -0.2498380000000 1.0   0.08
S      3 -0.2233900000000  0.3358100000000 -0.2498380000000 1.0   0.08
S      3  0.3358100000000  0.1374180000000 -0.2498380000000 1.0   0.08
S      3  0.1990080000000  0.1990080000000  0.4029770000000 1.0   0.05
S      3 -0.0922130000000 -0.0922130000000  0.2766400000000 1.0   0.03
Fe     4 -0.2383740000000  0.0340260000000 -0.2932890000000 1.0   3.79
Fe     4  0.0340260000000 -0.5023620000000 -0.2932890000000 1.0   3.79
Fe     4 -0.5023620000000 -0.2383740000000 -0.2932890000000 1.0   3.79
Fe     4  0.2824660000000 -0.1458840000000  0.3000870000000 1.0   3.92
Fe     4 -0.1458840000000 -0.4366680000000  0.3000870000000 1.0   3.92
Fe     4 -0.4366680000000  0.2824660000000  0.3000870000000 1.0   3.92
END
