TITL LFSO-Li4Fe3S3O2-201028-205255-e3e039 -0.0269 519.240577 -1.03453297E+004 24.0000 24.3138 24 (R3) n - 1
REM
REM Run started: Wed, 28 Oct 2020 23:31:08 +0000 in /scratch/scratch/uccabz1/launch_tmp/launcher_2020-10-28-20-52-53-447538
REM CASTEP 19.11| from code version Version unavailable
REM Functional Perdew Burke Ernzerhof Relativity Koelling-Harmon Dispersion off
REM Cut-off 340.0000 eV Grid scale 1.7500 Gmax 16.5316 1/A FBSC none
REM MP grid 2 2 2 Offset 0.000 0.000 0.000 No. kpts 2 Spacing 0.07
REM Total runtime: 9517.15 s
REM Overall efficiency: 72.8889 %
REM
REM
REM
REM compiler GCC version 4.9.2
REM options -cpp -iprefix /scratch/UCL/applications/gcc/4.9.2/bin/../lib/gcc/x86_64-unknown-linux-gnu/4.9.2/ -mtune=corei7 -march=x86-64 -g -O2
REM COMMAND_LINE
REM seed -417489075 -756684428 -1489482893 -1698026133 -242164387 -1632530898 -558266070 227687334 -326371331 -1813601893 -507500898 -893552316
REM
REM S 3|1.8|5|6|7|30:31:32(qc=5)
REM O 2|1.5|12|13|15|20:21(qc=5)
REM Li 1|1.3|8|9|10|10U:20(qc=5)
REM Fe 3|2.2|2.0|1.0|8|9|10|40:41:32(qc=5)
REM Fe d:4.0 
REM
CELL 1.54180    8.49725    8.49725    8.49725   69.42323   69.42323   69.42323
LATT -1
SFAC Li O  S  Fe 
Li     1  0.5463060000000  0.4289000000000  0.0989080000000 1.0  -0.01
Li     1  0.4289000000000  0.0989080000000  0.5463060000000 1.0  -0.01
Li     1  0.0989080000000  0.5463060000000  0.4289000000000 1.0  -0.01
Li     1  0.3237630000000 -0.3671920000000 -0.4561790000000 1.0  -0.01
Li     1 -0.3671920000000 -0.4561790000000  0.3237630000000 1.0  -0.01
Li     1 -0.4561790000000  0.3237630000000 -0.3671920000000 1.0  -0.01
Li     1 -0.1493970000000 -0.1493970000000 -0.1493970000000 1.0  -0.09
Li     1 -0.3681350000000 -0.3681350000000 -0.3681350000000 1.0   0.01
O      2 -0.0420110000000 -0.0077950000000 -0.3669140000000 1.0   0.20
O      2 -0.0077950000000 -0.3669140000000 -0.0420110000000 1.0   0.20
O      2 -0.3669140000000 -0.0420110000000 -0.0077950000000 1.0   0.20
O      2 -0.4576480000000 -0.4576480000000 -0.4576480000000 1.0   0.02
S      3 -0.2135710000000  0.3188330000000 -0.1261150000000 1.0   0.11
S      3  0.3188330000000 -0.1261150000000 -0.2135710000000 1.0   0.11
S      3 -0.1261150000000 -0.2135710000000  0.3188330000000 1.0   0.11
S      3  0.3394660000000 -0.3427800000000  0.2161410000000 1.0   0.09
S      3 -0.3427800000000  0.2161410000000  0.3394660000000 1.0   0.09
S      3  0.2161410000000  0.3394660000000 -0.3427800000000 1.0   0.09
Fe     4  0.1138300000000 -0.2830520000000  0.0549280000000 1.0   3.83
Fe     4 -0.2830520000000  0.0549280000000  0.1138300000000 1.0   3.83
Fe     4  0.0549280000000  0.1138300000000 -0.2830520000000 1.0   3.83
Fe     4 -0.5524530000000 -0.1150740000000 -0.0051290000000 1.0   3.81
Fe     4 -0.1150740000000 -0.0051290000000 -0.5524530000000 1.0   3.81
Fe     4 -0.0051290000000 -0.5524530000000 -0.1150740000000 1.0   3.81
END
