TITL LFSO-LiFe3S4O-201028-182019-f51678 0.0197 357.940489 -8.87535546E+003 20.0005 23.8225 18 (R3) n - 1
REM
REM Run started: Wed, 28 Oct 2020 21:04:52 +0000 in /scratch/scratch/uccabz1/launch_tmp/launcher_2020-10-28-18-20-17-507178
REM CASTEP 19.11| from code version Version unavailable
REM Functional Perdew Burke Ernzerhof Relativity Koelling-Harmon Dispersion off
REM Cut-off 340.0000 eV Grid scale 1.7500 Gmax 16.5316 1/A FBSC none
REM MP grid 3 3 3 Offset 0.000 0.000 0.000 No. kpts 6 Spacing 0.07
REM Total runtime: 10513.4 s
REM Overall efficiency: 75.6667 %
REM
REM
REM
REM compiler GCC version 4.9.2
REM options -cpp -iprefix /scratch/UCL/applications/gcc/4.9.2/bin/../lib/gcc/x86_64-unknown-linux-gnu/4.9.2/ -mtune=corei7 -march=x86-64 -g -O2
REM COMMAND_LINE
REM seed 1076328123 -1291543996 -464332277 -2031367248 -2010460402 -227375105 295872152 -434636234 -1438477659 1774648702 622318334 937351934
REM
REM S 3|1.8|5|6|7|30:31:32(qc=5)
REM O 2|1.5|12|13|15|20:21(qc=5)
REM Li 1|1.3|8|9|10|10U:20(qc=5)
REM Fe 3|2.2|2.0|1.0|8|9|10|40:41:32(qc=5)
REM Fe d:4.0 
REM
CELL 1.54180    7.10187    7.10187    7.10187   91.23548   91.23548   91.23548
LATT -1
SFAC Li O  S  Fe 
Li     1  0.2398950000000  0.2398950000000  0.2398950000000 1.0  -0.05
Li     1 -0.3646010000000 -0.3646010000000 -0.3646010000000 1.0  -0.06
O      2 -0.2185920000000 -0.2185920000000 -0.2185920000000 1.0  -0.29
O      2  0.0927610000000  0.0927610000000  0.0927610000000 1.0  -0.02
S      3 -0.1187810000000 -0.4762350000000  0.1785330000000 1.0  -0.30
S      3  0.1785330000000 -0.1187810000000 -0.4762350000000 1.0  -0.30
S      3 -0.4762350000000  0.1785330000000 -0.1187810000000 1.0  -0.30
S      3 -0.0859060000000  0.3485950000000 -0.3337370000000 1.0  -0.20
S      3 -0.3337370000000 -0.0859060000000  0.3485950000000 1.0  -0.20
S      3  0.3485950000000 -0.3337370000000 -0.0859060000000 1.0  -0.20
S      3  0.4335160000000  0.4335160000000  0.4335160000000 1.0  -0.06
S      3 -0.0933990000000 -0.0933990000000 -0.0933990000000 1.0  -0.46
Fe     4  0.1725780000000 -0.4411550000000 -0.3829790000000 1.0   3.88
Fe     4 -0.3829790000000  0.1725780000000 -0.4411550000000 1.0   3.88
Fe     4 -0.4411550000000 -0.3829790000000  0.1725780000000 1.0   3.88
Fe     4 -0.1339540000000  0.2428510000000 -0.0159950000000 1.0   3.60
Fe     4 -0.0159950000000 -0.1339540000000  0.2428510000000 1.0   3.60
Fe     4  0.2428510000000 -0.0159950000000 -0.1339540000000 1.0   3.60
END
