TITL LFSO-Li2Fe4S4O-201024-230114-9dfd57 -0.0607 201.309807 -5.49393759E+003 13.2390 13.9191 11 (P4) n - 1
REM
REM Run started: Sat, 24 Oct 2020 23:31:17 +0100 in /scratch/scratch/uccabz1/launch_tmp/launcher_2020-10-24-22-01-12-077791
REM CASTEP 19.11| from code version Version unavailable
REM Functional Perdew Burke Ernzerhof Relativity Koelling-Harmon Dispersion off
REM Cut-off 340.0000 eV Grid scale 1.7500 Gmax 16.5316 1/A FBSC none
REM MP grid 3 3 3 Offset 0.000 0.000 0.000 No. kpts 6 Spacing 0.07
REM Total runtime: 1510.75 s
REM Overall efficiency: 70.6667 %
REM
REM
REM
REM compiler GCC version 4.9.2
REM options -cpp -iprefix /scratch/UCL/applications/gcc/4.9.2/bin/../lib/gcc/x86_64-unknown-linux-gnu/4.9.2/ -mtune=corei7 -march=x86-64 -g -O2
REM COMMAND_LINE
REM seed 874714880 -1632038803 -1909013617 2048382824 -307148583 -412248049 1997431167 739265713 916476363 799894978 -630058547 -688971978
REM
REM S 3|1.8|5|6|7|30:31:32(qc=5)
REM O 2|1.5|12|13|15|20:21(qc=5)
REM Li 1|1.3|8|9|10|10U:20(qc=5)
REM Fe 3|2.2|2.0|1.0|8|9|10|40:41:32(qc=5)
REM Fe d:4.0 
REM
CELL 1.54180    6.90096    5.40104    5.40104   90.00000   90.00000   90.00000
LATT -1
SFAC Li O  S  Fe 
Li     1 -0.2056370000000  0.0000000000000  0.5000000000000 1.0  -0.14
Li     1 -0.2056370000000  0.5000000000000  0.0000000000000 1.0  -0.14
O      2  0.1062670000000  0.0000000000000  0.0000000000000 1.0   0.12
S      3 -0.5003560000000  0.3674080000000  0.2062880000000 1.0   0.03
S      3 -0.5003560000000 -0.3674080000000 -0.2062880000000 1.0   0.03
S      3 -0.5003560000000  0.2062880000000 -0.3674080000000 1.0   0.03
S      3 -0.5003560000000 -0.2062880000000  0.3674080000000 1.0   0.03
Fe     4  0.1645410000000 -0.3203090000000  0.1833930000000 1.0   3.32
Fe     4  0.1645410000000  0.3203090000000 -0.1833930000000 1.0   3.32
Fe     4  0.1645410000000  0.1833930000000  0.3203090000000 1.0   3.32
Fe     4  0.1645410000000 -0.1833930000000 -0.3203090000000 1.0   3.32
END
