TITL LFSO-Li2Fe4S3O2-201025-090308-0293e2 0.0378 280.333155 -5.63393956E+003 15.3998 15.5525 11 (C222) n - 1
REM
REM Run started: Sun, 25 Oct 2020 15:50:42 +0000 in /scratch/scratch/uccabz1/launch_tmp/launcher_2020-10-25-09-03-06-941448
REM CASTEP 19.11| from code version Version unavailable
REM Functional Perdew Burke Ernzerhof Relativity Koelling-Harmon Dispersion off
REM Cut-off 340.0000 eV Grid scale 1.7500 Gmax 16.5316 1/A FBSC none
REM MP grid 3 3 3 Offset 0.000 0.000 0.000 No. kpts 8 Spacing 0.07
REM Total runtime: 25739.9 s
REM Overall efficiency: 97.1818 %
REM
REM
REM
REM compiler GCC version 4.9.2
REM options -cpp -iprefix /scratch/UCL/applications/gcc/4.9.2/bin/../lib/gcc/x86_64-unknown-linux-gnu/4.9.2/ -mtune=corei7 -march=x86-64 -g -O2
REM COMMAND_LINE
REM seed 1372433013 1127504683 124662567 2076727810 -1882668769 -1580325126 -1376293736 1048323174 -704410825 -1451711662 2103021710 -616622624
REM
REM S 3|1.8|5|6|7|30:31:32(qc=5)
REM O 2|1.5|12|13|15|20:21(qc=5)
REM Li 1|1.3|8|9|10|10U:20(qc=5)
REM Fe 3|2.2|2.0|1.0|8|9|10|40:41:32(qc=5)
REM Fe d:4.0 
REM
CELL 1.54180    6.06822    7.83275    7.83275  131.15070   90.00000   90.00000
LATT -1
SFAC Li O  S  Fe 
Li     1 -0.3932170000000 -0.5000000000000 -0.0000000000000 1.0  -0.04
Li     1  0.3932170000000  0.0000000000000  0.5000000000000 1.0  -0.04
O      2  0.5000000000000 -0.1803860000000  0.1803860000000 1.0   0.16
O      2 -0.5000000000000  0.1803860000000 -0.1803860000000 1.0   0.16
S      3  0.0095460000000 -0.5000000000000 -0.0000000000000 1.0   0.05
S      3 -0.0095460000000  0.0000000000000 -0.5000000000000 1.0   0.05
S      3  0.0000000000000  0.0000000000000 -0.0000000000000 1.0   0.04
Fe     4 -0.2202050000000  0.0370430000000 -0.2299150000000 1.0   3.75
Fe     4 -0.2202050000000 -0.0370430000000  0.2299150000000 1.0   3.75
Fe     4  0.2202050000000 -0.2299150000000  0.0370430000000 1.0   3.75
Fe     4  0.2202050000000  0.2299150000000 -0.0370430000000 1.0   3.75
END
