TITL LFSO-Li2Fe3S2O2-201022-121959-0dd06a -0.0615 174.547844 -4.46717594E+003 11.9996 12.3294 9 (R3m) n - 1
REM
REM Run started: Thu, 22 Oct 2020 14:17:54 +0100 in /lustre/scratch/uccabz1/launch_tmp/launcher_2020-10-22-11-19-57-500179
REM CASTEP 20.1 from code version af48c487+ pr-geom-scf-spinfix Tue Jun 2 15:39:59 2020 +0100
REM Functional Perdew Burke Ernzerhof Relativity Koelling-Harmon Dispersion off
REM Cut-off 340.0000 eV Grid scale 1.7500 Gmax 16.5316 1/A FBSC none
REM MP grid 3 3 3 Offset 0.000 0.000 0.000 No. kpts 6 Spacing 0.07
REM Total runtime: 6637.23 s
REM Overall efficiency: 94.3333 %
REM
REM
REM
REM compiler GCC version 4.9.2
REM options -cpp -iprefix /lustre/shared/ucl/apps/gcc/4.9.2/bin/../lib/gcc/x86_64-unknown-linux-gnu/4.9.2/ -mtune=corei7 -march=x86-64 -g -Og
REM COMMAND_LINE
REM seed 420511161 -1169823281 -1845235989 -1126061956 1255765454 474230590 1903887693 -1127403460 -2085047570 -1304176353 -14293110 -1174654587
REM
REM S 3|1.8|5|6|7|30:31:32(qc=5)
REM O 2|1.5|12|13|15|20:21(qc=5)
REM Li 1|1.3|8|9|10|10U:20(qc=5)
REM Fe 3|2.2|2.0|1.0|8|9|10|40:41:32(qc=5)
REM Fe d:4.0 
REM
CELL 1.54180    5.86162    5.86162    6.77229   64.35689   64.35689   60.00000
LATT -1
SFAC Li O  S  Fe 
Li     1 -0.1950010000000 -0.1950010000000 -0.4149980000000 1.0  -0.07
Li     1  0.0586230000000  0.0586230000000 -0.1758690000000 1.0   0.00
O      2  0.1627300000000  0.1627300000000 -0.4881910000000 1.0   0.28
O      2 -0.4898010000000 -0.4898010000000  0.4694040000000 1.0   0.25
S      3 -0.3255710000000 -0.3255710000000 -0.0232870000000 1.0   0.38
S      3  0.3294490000000  0.3294490000000  0.0116520000000 1.0   0.26
Fe     4 -0.6001750000000 -0.0962300000000  0.2965800000000 1.0   3.63
Fe     4  0.3998250000000 -0.6001750000000  0.2965800000000 1.0   3.63
Fe     4 -0.0962300000000  0.3998250000000  0.2965800000000 1.0   3.63
END
