TITL LFSO-Li4Fe3S4O-201030-011456-4c0a84 0.0567 485.160785 -1.00791559E+004 8.00000 23.5666 24 (I212121) n - 1
REM
REM Run started: Fri, 30 Oct 2020 13:37:27 +0000 in /lustre/scratch/uccabz1/launch_tmp/launcher_2020-10-30-01-14-54-489201
REM CASTEP 20.1 from code version af48c487+ pr-geom-scf-spinfix Tue Jun 2 15:39:59 2020 +0100
REM Functional Perdew Burke Ernzerhof Relativity Koelling-Harmon Dispersion off
REM Cut-off 340.0000 eV Grid scale 1.7500 Gmax 16.5316 1/A FBSC none
REM MP grid 3 2 3 Offset 0.000 0.000 0.000 No. kpts 6 Spacing 0.07
REM Total runtime: 50111.6 s
REM Overall efficiency: 74.25 %
REM
REM
REM
REM compiler GCC version 4.9.2
REM options -cpp -iprefix /lustre/shared/ucl/apps/gcc/4.9.2/bin/../lib/gcc/x86_64-unknown-linux-gnu/4.9.2/ -mtune=corei7 -march=x86-64 -g -Og
REM COMMAND_LINE
REM seed 999131420 -1737505468 -1534760743 643331688 -1202094761 -499772105 1237593534 -338109475 -1214224028 -356565519 -1276998498 44683819
REM
REM S 3|1.8|5|6|7|30:31:32(qc=5)
REM O 2|1.5|12|13|15|20:21(qc=5)
REM Li 1|1.3|8|9|10|10U:20(qc=5)
REM Fe 3|2.2|2.0|1.0|8|9|10|40:41:32(qc=5)
REM Fe d:4.0 
REM
CELL 1.54180    8.00130   11.14205    8.75540  129.51614  117.18950   90.00000
LATT -1
SFAC Li O  S  Fe 
Li     1 -0.3530930000000  0.2240190000000 -0.3088080000000 1.0  -0.03
Li     1 -0.0442860000000  0.2759810000000  0.3088080000000 1.0  -0.03
Li     1 -0.1469070000000  0.0328270000000  0.3088080000000 1.0  -0.03
Li     1  0.5442860000000  0.4671730000000 -0.3088080000000 1.0  -0.03
Li     1  0.2830720000000 -0.1927900000000 -0.1283780000000 1.0   0.01
Li     1  0.4114500000000 -0.3072100000000  0.1283780000000 1.0   0.01
Li     1  0.2169280000000  0.4355880000000  0.1283780000000 1.0   0.01
Li     1  0.0885500000000  0.0644120000000 -0.1283780000000 1.0   0.01
O      2  0.2792540000000  0.2500000000000  0.0000000000000 1.0   0.20
O      2  0.2207460000000 -0.2500000000000  0.0000000000000 1.0   0.20
S      3 -0.4174510000000  0.0756460000000  0.1206900000000 1.0   0.00
S      3  0.4618590000000  0.4243540000000 -0.1206900000000 1.0   0.00
S      3 -0.0825490000000 -0.5450440000000 -0.1206900000000 1.0   0.00
S      3  0.0381410000000  0.0450440000000  0.1206900000000 1.0   0.00
S      3 -0.4858250000000 -0.0196970000000 -0.4111410000000 1.0   0.06
S      3 -0.0746840000000 -0.4803030000000  0.4111410000000 1.0   0.06
S      3 -0.0141750000000 -0.1085570000000  0.4111410000000 1.0   0.06
S      3  0.5746840000000 -0.3914430000000 -0.4111410000000 1.0   0.06
Fe     4  0.5763290000000  0.3462170000000  0.2442410000000 1.0   3.73
Fe     4  0.3320880000000  0.1537830000000 -0.2442410000000 1.0   3.73
Fe     4 -0.0763290000000 -0.3980240000000 -0.2442410000000 1.0   3.73
Fe     4  0.1679120000000 -0.1019760000000  0.2442410000000 1.0   3.73
Fe     4 -0.3378270000000 -0.0878270000000 -0.1756540000000 1.0  -3.76
Fe     4 -0.1621730000000 -0.4121730000000  0.1756540000000 1.0  -3.76
END
