TITL LFSO-Li2Fe4S3O2-201025-233408-1880dc 0.1098 412.309930 -1.12725744E+004 -0.297056E-10 30.9249 22 (P-1) n - 1
REM
REM Run started: Wed, 28 Oct 2020 12:16:10 +0000 in /lustre/scratch/uccabz1/launch_tmp/launcher_2020-10-27-12-23-02-576629
REM CASTEP 20.1 from code version af48c487+ pr-geom-scf-spinfix Tue Jun 2 15:39:59 2020 +0100
REM Functional Perdew Burke Ernzerhof Relativity Koelling-Harmon Dispersion off
REM Cut-off 340.0000 eV Grid scale 1.7500 Gmax 16.5316 1/A FBSC none
REM MP grid 4 2 2 Offset 0.000 0.000 0.000 No. kpts 8 Spacing 0.07
REM Total runtime: 194382 s
REM Overall efficiency: 80.4615 %
REM
REM
REM
REM compiler GCC version 4.9.2
REM options -cpp -iprefix /lustre/shared/ucl/apps/gcc/4.9.2/bin/../lib/gcc/x86_64-unknown-linux-gnu/4.9.2/ -mtune=corei7 -march=x86-64 -g -Og
REM COMMAND_LINE
REM seed -2090470857 -1458622906 -1325373802 261912661 1589758435 1883916775 2124759450 2133571511 -739826764 1904454774 1386918694 -2014304410
REM
REM S 3|1.8|5|6|7|30:31:32(qc=5)
REM O 2|1.5|12|13|15|20:21(qc=5)
REM Li 1|1.3|8|9|10|10U:20(qc=5)
REM Fe 3|2.2|2.0|1.0|8|9|10|40:41:32(qc=5)
REM Fe d:4.0 
REM
CELL 1.54180    3.89561    9.33089   14.51409  125.66321   78.50860  105.55921
LATT -1
SFAC Li O  S  Fe 
Li     1  0.0247620000000  0.4795470000000  0.3364210000000 1.0   0.04
Li     1 -0.0247620000000 -0.4795470000000 -0.3364210000000 1.0   0.04
Li     1 -0.3838980000000  0.2985060000000  0.1466320000000 1.0  -0.04
Li     1  0.3838980000000 -0.2985060000000 -0.1466320000000 1.0  -0.04
O      2  0.0419400000000  0.4867950000000 -0.2226820000000 1.0   0.01
O      2 -0.0419400000000 -0.4867950000000  0.2226820000000 1.0   0.01
O      2 -0.2843570000000 -0.0910840000000  0.2988980000000 1.0  -0.09
O      2  0.2843570000000  0.0910840000000 -0.2988980000000 1.0  -0.09
S      3 -0.5143290000000  0.2999230000000 -0.4707670000000 1.0  -0.10
S      3  0.5143290000000 -0.2999230000000  0.4707670000000 1.0  -0.10
S      3 -0.1917300000000 -0.1736220000000 -0.2378940000000 1.0   0.02
S      3  0.1917300000000  0.1736220000000  0.2378940000000 1.0   0.02
S      3  0.6023090000000  0.2988020000000 -0.0243210000000 1.0   0.10
S      3 -0.6023090000000 -0.2988020000000  0.0243210000000 1.0   0.10
Fe     4  0.0056150000000 -0.1481580000000 -0.4055920000000 1.0  -3.84
Fe     4 -0.0056150000000  0.1481580000000  0.4055920000000 1.0  -3.84
Fe     4  0.4084480000000  0.0209970000000 -0.2054870000000 1.0   3.83
Fe     4 -0.4084480000000 -0.0209970000000  0.2054870000000 1.0   3.83
Fe     4  0.2489730000000  0.2727110000000 -0.3167820000000 1.0  -3.74
Fe     4 -0.2489730000000 -0.2727110000000  0.3167820000000 1.0  -3.74
Fe     4  0.1695690000000  0.4934460000000  0.0852750000000 1.0   3.80
Fe     4 -0.1695690000000 -0.4934460000000 -0.0852750000000 1.0   3.80
END
