TITL LFSO-Li5FeS2O2-201026-194441-ec2bea 0.0454 167.789149 -3.33946885E+003 3.06078 4.71084 10 (R3) n - 1
REM
REM Run started: Mon, 26 Oct 2020 20:24:45 +0000 in /lustre/scratch/uccabz1/launch_tmp/launcher_2020-10-26-19-44-39-334733
REM CASTEP 20.1 from code version af48c487+ pr-geom-scf-spinfix Tue Jun 2 15:39:59 2020 +0100
REM Functional Perdew Burke Ernzerhof Relativity Koelling-Harmon Dispersion off
REM Cut-off 340.0000 eV Grid scale 1.7500 Gmax 16.5316 1/A FBSC none
REM MP grid 4 4 3 Offset 0.000 0.000 0.000 No. kpts 24 Spacing 0.07
REM Total runtime: 2433.09 s
REM Overall efficiency: 74.5 %
REM
REM
REM
REM compiler GCC version 4.9.2
REM options -cpp -iprefix /lustre/shared/ucl/apps/gcc/4.9.2/bin/../lib/gcc/x86_64-unknown-linux-gnu/4.9.2/ -mtune=corei7 -march=x86-64 -g -Og
REM COMMAND_LINE
REM seed -644680291 1528383368 -1964023484 1622568438 1873880490 -1863670179 1670999485 543043111 -1119788415 1095714952 -1275186415 -43820429
REM
REM S 3|1.8|5|6|7|30:31:32(qc=5)
REM O 2|1.5|12|13|15|20:21(qc=5)
REM Li 1|1.3|8|9|10|10U:20(qc=5)
REM Fe 3|2.2|2.0|1.0|8|9|10|40:41:32(qc=5)
REM Fe d:4.0 
REM
CELL 1.54180    5.48762    5.48762    7.17156   67.50537   67.50537   60.00000
LATT -1
SFAC Li O  S  Fe 
Li     1 -0.2932540000000 -0.2636080000000  0.2750930000000 1.0  -0.04
Li     1  0.2817690000000 -0.2932540000000  0.2750930000000 1.0  -0.04
Li     1 -0.2636080000000  0.2817690000000  0.2750930000000 1.0  -0.04
Li     1 -0.0022530000000 -0.0022530000000  0.0067580000000 1.0  -0.02
Li     1 -0.1944900000000 -0.1944900000000  0.5834710000000 1.0  -0.02
O      2 -0.1006270000000 -0.1006270000000  0.3018820000000 1.0  -0.02
O      2  0.5121160000000  0.5121160000000 -1.5363480000000 1.0  -0.07
S      3 -0.3136050000000 -0.3136050000000  0.9408140000000 1.0  -0.44
S      3  0.2931400000000  0.2931400000000 -0.8794190000000 1.0  -0.28
Fe     4  0.1785970000000  0.1785970000000 -0.5357920000000 1.0   4.02
END
