TITL LFSO-Li2Fe3S2O2-201024-064459-be53aa 0.0227 177.582593 -4.46955658E+003 12.0000 12.0947 9 (C2) n - 1
REM
REM Run started: Sat, 24 Oct 2020 07:34:52 +0100 in /lustre/scratch/uccabz1/launch_tmp/launcher_2020-10-24-05-44-57-602940
REM CASTEP 20.1 from code version af48c487+ pr-geom-scf-spinfix Tue Jun 2 15:39:59 2020 +0100
REM Functional Perdew Burke Ernzerhof Relativity Koelling-Harmon Dispersion off
REM Cut-off 340.0000 eV Grid scale 1.7500 Gmax 16.5316 1/A FBSC none
REM MP grid 3 3 3 Offset 0.000 0.000 0.000 No. kpts 10 Spacing 0.07
REM Total runtime: 3313.87 s
REM Overall efficiency: 79.125 %
REM
REM
REM
REM compiler GCC version 4.9.2
REM options -cpp -iprefix /lustre/shared/ucl/apps/gcc/4.9.2/bin/../lib/gcc/x86_64-unknown-linux-gnu/4.9.2/ -mtune=corei7 -march=x86-64 -g -Og
REM COMMAND_LINE
REM seed -681272146 -1697851376 -1201641068 1567845163 -1118774569 -1879731450 -169120472 395633588 -1844571082 1123034400 -1541871975 -383353001
REM
REM S 3|1.8|5|6|7|30:31:32(qc=5)
REM O 2|1.5|12|13|15|20:21(qc=5)
REM Li 1|1.3|8|9|10|10U:20(qc=5)
REM Fe 3|2.2|2.0|1.0|8|9|10|40:41:32(qc=5)
REM Fe d:4.0 
REM
CELL 1.54180    6.04092    6.08068    6.08068   74.77715   63.24190   63.24190
LATT -1
SFAC Li O  S  Fe 
Li     1  0.3088510000000 -0.5960310000000  0.2881580000000 1.0  -0.04
Li     1 -0.3088510000000 -0.2881580000000  0.5960310000000 1.0  -0.04
O      2 -0.4407540000000  0.3934730000000 -0.0391380000000 1.0   0.19
O      2  0.4407540000000  0.0391380000000 -0.3934730000000 1.0   0.19
S      3 -0.0883620000000  0.3249740000000  0.3678900000000 1.0   0.12
S      3  0.0883620000000 -0.3678900000000 -0.3249740000000 1.0   0.12
Fe     4  0.1499640000000  0.0031750000000 -0.3984250000000 1.0   3.80
Fe     4 -0.1499640000000  0.3984250000000 -0.0031750000000 1.0   3.80
Fe     4 -0.5000000000000  0.2653500000000 -0.2653500000000 1.0   3.85
END
