TITL LFSO-Li2Fe3S2O2-201022-115604-c72b6f -0.0030 147.492985 -4.46886828E+003 12.0000 12.0780 9 (Fmm2) n - 1
REM
REM Run started: Thu, 22 Oct 2020 13:37:06 +0100 in /lustre/scratch/uccabz1/launch_tmp/launcher_2020-10-22-10-56-02-362682
REM CASTEP 20.1 from code version af48c487+ pr-geom-scf-spinfix Tue Jun 2 15:39:59 2020 +0100
REM Functional Perdew Burke Ernzerhof Relativity Koelling-Harmon Dispersion off
REM Cut-off 340.0000 eV Grid scale 1.7500 Gmax 16.5316 1/A FBSC none
REM MP grid 4 4 5 Offset 0.000 0.000 0.000 No. kpts 26 Spacing 0.07
REM Total runtime: 6362.6 s
REM Overall efficiency: 91.5 %
REM
REM
REM
REM compiler GCC version 4.9.2
REM options -cpp -iprefix /lustre/shared/ucl/apps/gcc/4.9.2/bin/../lib/gcc/x86_64-unknown-linux-gnu/4.9.2/ -mtune=corei7 -march=x86-64 -g -Og
REM COMMAND_LINE
REM seed -293014592 540454042 2065896702 1200044724 -795165730 -2060866882 1255022199 1940174753 1380353310 1076478556 -153759516 -767398649
REM
REM S 3|1.8|5|6|7|30:31:32(qc=5)
REM O 2|1.5|12|13|15|20:21(qc=5)
REM Li 1|1.3|8|9|10|10U:20(qc=5)
REM Fe 3|2.2|2.0|1.0|8|9|10|40:41:32(qc=5)
REM Fe d:4.0 
REM
CELL 1.54180    6.92137    6.92137    5.58483  124.00871  124.00871   95.58807
LATT -1
SFAC Li O  S  Fe 
Li     1  0.4503920000000 -0.0496080000000 -0.0992160000000 1.0  -0.04
Li     1 -0.0496080000000  0.4503920000000 -0.0992160000000 1.0  -0.04
O      2  0.2526430000000  0.2526430000000 -0.1414000000000 1.0   0.19
O      2 -0.3940430000000 -0.3940430000000 -0.1414000000000 1.0   0.19
S      3 -0.2225660000000  0.1106180000000 -0.1119490000000 1.0   0.11
S      3  0.1106180000000 -0.2225660000000 -0.1119490000000 1.0   0.11
Fe     4 -0.4039920000000 -0.4039920000000  0.4903440000000 1.0   3.80
Fe     4 -0.1056640000000 -0.1056640000000  0.4903440000000 1.0   3.80
Fe     4  0.2378620000000  0.2378620000000  0.4757250000000 1.0   3.87
END
