TITL LFSO-Li2Fe4S4O-201024-141520-1e50fc -0.0085 240.953065 -5.50030334E+003 15.9995 16.1438 11 (C2) n - 1
REM
REM Run started: Sat, 24 Oct 2020 16:05:57 +0100 in /lustre/scratch/uccabz1/launch_tmp/launcher_2020-10-24-13-15-18-857180
REM CASTEP 20.1 from code version af48c487+ pr-geom-scf-spinfix Tue Jun 2 15:39:59 2020 +0100
REM Functional Perdew Burke Ernzerhof Relativity Koelling-Harmon Dispersion off
REM Cut-off 340.0000 eV Grid scale 1.7500 Gmax 16.5316 1/A FBSC none
REM MP grid 3 3 3 Offset 0.000 0.000 0.000 No. kpts 10 Spacing 0.07
REM Total runtime: 6277.55 s
REM Overall efficiency: 78.6 %
REM
REM
REM
REM compiler GCC version 4.9.2
REM options -cpp -iprefix /lustre/shared/ucl/apps/gcc/4.9.2/bin/../lib/gcc/x86_64-unknown-linux-gnu/4.9.2/ -mtune=corei7 -march=x86-64 -g -Og
REM COMMAND_LINE
REM seed -670297565 -161550999 -1128527771 1211858490 435746207 1117239499 -593297324 1143288136 -900440121 -1100178946 217029690 -1239875443
REM
REM S 3|1.8|5|6|7|30:31:32(qc=5)
REM O 2|1.5|12|13|15|20:21(qc=5)
REM Li 1|1.3|8|9|10|10U:20(qc=5)
REM Fe 3|2.2|2.0|1.0|8|9|10|40:41:32(qc=5)
REM Fe d:4.0 
REM
CELL 1.54180    6.46526    6.09596    7.15602   82.52393   63.14490   73.26012
LATT -1
SFAC Li O  S  Fe 
Li     1 -0.1879770000000 -0.2479610000000 -0.1999450000000 1.0  -0.04
Li     1 -0.6120780000000  0.2479610000000 -0.1999450000000 1.0  -0.04
O      2  0.1707190000000 -0.5000000000000 -0.3414380000000 1.0   0.23
S      3 -0.2168690000000  0.1666130000000 -0.1713530000000 1.0   0.12
S      3  0.3882220000000 -0.1666130000000 -0.1713530000000 1.0   0.12
S      3  0.1496050000000  0.2896590000000  0.1890880000000 1.0   0.16
S      3 -0.3386930000000 -0.2896590000000  0.1890880000000 1.0   0.16
Fe     4 -0.1619560000000  0.3180900000000  0.0840150000000 1.0   3.84
Fe     4  0.0779410000000 -0.3180900000000  0.0840150000000 1.0   3.84
Fe     4  0.0646060000000  0.3112330000000  0.5435480000000 1.0   3.82
Fe     4  0.3918460000000 -0.3112330000000  0.5435480000000 1.0   3.82
END
