TITL LFSO-Li2Fe4S3O2-201026-101612-331b58 0.0101 230.858430 -5.63428056E+003 16.0000 16.2536 11 (I222) n - 1
REM
REM Run started: Mon, 26 Oct 2020 18:11:07 +0000 in /scratch/scratch/uccabz1/launch_tmp/launcher_2020-10-26-10-16-10-794844
REM CASTEP 19.11| from code version Version unavailable
REM Functional Perdew Burke Ernzerhof Relativity Koelling-Harmon Dispersion off
REM Cut-off 340.0000 eV Grid scale 1.7500 Gmax 16.5316 1/A FBSC none
REM MP grid 3 4 4 Offset 0.000 0.000 0.000 No. kpts 16 Spacing 0.07
REM Total runtime: 31818.6 s
REM Overall efficiency: 95.2 %
REM
REM
REM
REM compiler GCC version 4.9.2
REM options -cpp -iprefix /scratch/UCL/applications/gcc/4.9.2/bin/../lib/gcc/x86_64-unknown-linux-gnu/4.9.2/ -mtune=corei7 -march=x86-64 -g -O2
REM COMMAND_LINE
REM seed -294825145 1055796091 483441821 -2068199409 1948498648 301413392 339255902 -1708435150 -184900593 273930492 -1189631775 -2143604872
REM
REM S 3|1.8|5|6|7|30:31:32(qc=5)
REM O 2|1.5|12|13|15|20:21(qc=5)
REM Li 1|1.3|8|9|10|10U:20(qc=5)
REM Fe 3|2.2|2.0|1.0|8|9|10|40:41:32(qc=5)
REM Fe d:4.0 
REM
CELL 1.54180    6.85905    9.40677    9.40677   24.20020   68.61822   68.61822
LATT -1
SFAC Li O  S  Fe 
Li     1  0.2717090000000 -0.2717090000000 -0.2717090000000 1.0  -0.05
Li     1 -0.2717090000000  0.2717090000000  0.2717090000000 1.0  -0.05
O      2 -0.1639360000000  0.1639360000000  0.1639360000000 1.0   0.30
O      2  0.1639360000000 -0.1639360000000 -0.1639360000000 1.0   0.30
S      3 -0.3602520000000 -0.1397480000000 -0.1397480000000 1.0   0.07
S      3  0.3602520000000  0.1397480000000  0.1397480000000 1.0   0.07
S      3  0.0000000000000  0.5000000000000  0.5000000000000 1.0   0.04
Fe     4 -0.2938360000000 -0.0890700000000  0.2855600000000 1.0   3.83
Fe     4 -0.0973460000000  0.0890700000000 -0.2855600000000 1.0   3.83
Fe     4  0.2938360000000 -0.2855600000000  0.0890700000000 1.0   3.83
Fe     4  0.0973460000000  0.2855600000000 -0.0890700000000 1.0   3.83
END
