TITL LFSO-Li2Fe4S3O2-201026-112931-9b5872 -0.0069 423.122651 -1.12694039E+004 32.0000 32.4143 22 (R3) n - 1
REM
REM Run started: Wed, 28 Oct 2020 19:03:00 +0000 in /scratch/scratch/uccabz1/launch_tmp/launcher_2020-10-27-23-35-58-745128
REM CASTEP 19.11| from code version Version unavailable
REM Functional Perdew Burke Ernzerhof Relativity Koelling-Harmon Dispersion off
REM Cut-off 340.0000 eV Grid scale 1.7500 Gmax 16.5316 1/A FBSC none
REM MP grid 2 2 3 Offset 0.000 0.000 0.000 No. kpts 6 Spacing 0.07
REM Total runtime: 72353 s
REM Overall efficiency: 98.5 %
REM
REM
REM
REM compiler GCC version 4.9.2
REM options -cpp -iprefix /lustre/shared/ucl/apps/gcc/4.9.2/bin/../lib/gcc/x86_64-unknown-linux-gnu/4.9.2/ -mtune=corei7 -march=x86-64 -g -Og
REM COMMAND_LINE
REM seed 395368745 -1903692755 -105225245 1229649607 1041586351 236258782 1233922654 -867908196 -536609993 1246838721 977763866 1656666437
REM
REM S 3|1.8|5|6|7|30:31:32(qc=5)
REM O 2|1.5|12|13|15|20:21(qc=5)
REM Li 1|1.3|8|9|10|10U:20(qc=5)
REM Fe 3|2.2|2.0|1.0|8|9|10|40:41:32(qc=5)
REM Fe d:4.0 
REM
CELL 1.54180    9.36161    9.36161    7.76482   52.92771   52.92771   60.00000
LATT -1
SFAC Li O  S  Fe 
Li     1 -0.4460850000000  0.1455830000000 -0.0830960000000 1.0  -0.08
Li     1  0.1455830000000  0.3835980000000 -0.0830960000000 1.0  -0.08
Li     1  0.3835980000000 -0.4460850000000 -0.0830960000000 1.0  -0.08
Li     1  0.0626100000000  0.0626100000000 -0.1878290000000 1.0  -0.11
O      2 -0.4574740000000  0.3025690000000  0.0034440000000 1.0   0.17
O      2  0.3025690000000  0.1514610000000  0.0034440000000 1.0   0.17
O      2  0.1514610000000 -0.4574740000000  0.0034440000000 1.0   0.17
O      2 -0.0550190000000 -0.0550190000000  0.1650560000000 1.0   0.16
S      3  0.3229260000000 -0.2826010000000  0.1794950000000 1.0   0.23
S      3 -0.2826010000000 -0.2198190000000  0.1794950000000 1.0   0.23
S      3 -0.2198190000000  0.3229260000000  0.1794950000000 1.0   0.23
S      3 -0.0277890000000  0.0607670000000 -0.4315140000000 1.0   0.10
S      3  0.0607670000000  0.3985360000000 -0.4315140000000 1.0   0.10
S      3  0.3985360000000 -0.0277890000000 -0.4315140000000 1.0   0.10
Fe     4  0.0640340000000  0.0160310000000  0.2408730000000 1.0   3.84
Fe     4  0.0160310000000  0.6790630000000  0.2408730000000 1.0   3.84
Fe     4  0.6790630000000  0.0640340000000  0.2408730000000 1.0   3.84
Fe     4 -0.2408430000000 -0.6127430000000 -0.1518370000000 1.0   3.78
Fe     4 -0.6127430000000  0.0054220000000 -0.1518370000000 1.0   3.78
Fe     4  0.0054220000000 -0.2408430000000 -0.1518370000000 1.0   3.78
Fe     4  0.2309450000000  0.2309450000000 -0.6928350000000 1.0   3.97
Fe     4 -0.3992180000000 -0.3992180000000  0.1976540000000 1.0   3.87
END
