TITL LFSO-Li4Fe2S3O-201026-015230-049f4a 0.1138 595.775016 -7.74255366E+003 16.0000 16.2618 20 (F222) n - 1
REM
REM Run started: Mon, 26 Oct 2020 11:58:37 +0000 in /lustre/scratch/uccabz1/launch_tmp/launcher_2020-10-26-07-51-42-122924
REM CASTEP 20.1 from code version af48c487+ pr-geom-scf-spinfix Tue Jun 2 15:39:59 2020 +0100
REM Functional Perdew Burke Ernzerhof Relativity Koelling-Harmon Dispersion off
REM Cut-off 340.0000 eV Grid scale 1.7500 Gmax 16.5316 1/A FBSC none
REM MP grid 3 3 5 Offset 0.000 0.000 0.000 No. kpts 16 Spacing 0.07
REM Total runtime: 53744.7 s
REM Overall efficiency: 87.3 %
REM
REM
REM
REM compiler GCC version 4.9.2
REM options -cpp -iprefix /lustre/shared/ucl/apps/gcc/4.9.2/bin/../lib/gcc/x86_64-unknown-linux-gnu/4.9.2/ -mtune=corei7 -march=x86-64 -g -Og
REM COMMAND_LINE
REM seed 1971278701 -631619442 -990595980 1607245650 2097892948 -1526686044 -1663938725 -1820965224 1735807996 -1959339109 1767066460 199670039
REM
REM S 3|1.8|5|6|7|30:31:32(qc=5)
REM O 2|1.5|12|13|15|20:21(qc=5)
REM Li 1|1.3|8|9|10|10U:20(qc=5)
REM Fe 3|2.2|2.0|1.0|8|9|10|40:41:32(qc=5)
REM Fe d:4.0 
REM
CELL 1.54180   15.32280   15.32280    7.01783  110.22172  110.22172  133.10848
LATT -1
SFAC Li O  S  Fe 
Li     1 -0.0015290000000  0.2880270000000 -0.1350450000000 1.0  -0.01
Li     1 -0.1335170000000 -0.4230730000000 -0.1350450000000 1.0  -0.01
Li     1 -0.2880270000000  0.0015290000000  0.1350450000000 1.0  -0.01
Li     1  0.4230730000000  0.1335170000000  0.1350450000000 1.0  -0.01
Li     1 -0.5380560000000 -0.3247760000000  0.2981430000000 1.0   0.01
Li     1 -0.1638000000000 -0.3770810000000  0.2981430000000 1.0   0.01
Li     1  0.3247760000000  0.5380560000000 -0.2981430000000 1.0   0.01
Li     1  0.3770810000000  0.1638000000000 -0.2981430000000 1.0   0.01
O      2  0.1185620000000 -0.3814380000000 -0.5000000000000 1.0   0.27
O      2  0.3814380000000 -0.1185620000000  0.5000000000000 1.0   0.27
S      3  0.0841680000000  0.3761140000000 -0.3569870000000 1.0   0.05
S      3 -0.4411550000000  0.2668990000000 -0.3569870000000 1.0   0.05
S      3 -0.3761140000000 -0.0841680000000  0.3569870000000 1.0   0.05
S      3 -0.2668990000000  0.4411550000000  0.3569870000000 1.0   0.05
S      3  0.1338170000000 -0.1338170000000  0.5000000000000 1.0   0.08
S      3  0.3661830000000 -0.3661830000000 -0.5000000000000 1.0   0.08
Fe     4  0.4909410000000  0.0968590000000 -0.1984560000000 1.0   3.77
Fe     4  0.3106030000000 -0.2953160000000 -0.1984560000000 1.0   3.77
Fe     4 -0.0968590000000 -0.4909410000000  0.1984560000000 1.0   3.77
Fe     4  0.2953160000000 -0.3106030000000  0.1984560000000 1.0   3.77
END
