TITL LFSO-Li2Fe4S4O-201024-185215-80da00 0.7201 296.583101 -5.49900238E+003 12.0007 13.8817 11 (R3) n - 1
REM
REM Run started: Sun, 25 Oct 2020 00:44:52 +0100 in /scratch/scratch/uccabz1/launch_tmp/launcher_2020-10-24-22-59-15-786760
REM CASTEP 19.11| from code version Version unavailable
REM Functional Perdew Burke Ernzerhof Relativity Koelling-Harmon Dispersion off
REM Cut-off 340.0000 eV Grid scale 1.7500 Gmax 16.5316 1/A FBSC none
REM MP grid 3 3 3 Offset 0.000 0.000 0.000 No. kpts 6 Spacing 0.07
REM Total runtime: 19836.8 s
REM Overall efficiency: 72.5714 %
REM
REM
REM
REM compiler GCC version 4.9.2
REM options -cpp -iprefix /lustre/shared/ucl/apps/gcc/4.9.2/bin/../lib/gcc/x86_64-unknown-linux-gnu/4.9.2/ -mtune=corei7 -march=x86-64 -g -Og
REM COMMAND_LINE
REM seed -1656569338 -1058794949 1871261560 2146952963 -1538379512 -1653192473 -605936965 -820275897 1542852605 991997066 1814187664 1134012636
REM
REM S 3|1.8|5|6|7|30:31:32(qc=5)
REM O 2|1.5|12|13|15|20:21(qc=5)
REM Li 1|1.3|8|9|10|10U:20(qc=5)
REM Fe 3|2.2|2.0|1.0|8|9|10|40:41:32(qc=5)
REM Fe d:4.0 
REM
CELL 1.54180    8.76233    8.76233    8.76233   44.15271   44.15271   44.15271
LATT -1
SFAC Li O  S  Fe 
Li     1  0.2724140000000  0.2724140000000  0.2724140000000 1.0  -0.01
Li     1 -0.3007140000000 -0.3007140000000 -0.3007140000000 1.0  -0.06
O      2  0.1859580000000  0.1859580000000  0.1859580000000 1.0   0.16
S      3 -0.2693050000000  0.0667030000000  0.3671040000000 1.0  -0.07
S      3  0.0667030000000  0.3671040000000 -0.2693050000000 1.0  -0.07
S      3  0.3671040000000 -0.2693050000000  0.0667030000000 1.0  -0.07
S      3 -0.1349050000000 -0.1349050000000 -0.1349050000000 1.0   0.13
Fe     4  0.0363180000000  0.4584620000000 -0.0613600000000 1.0   3.76
Fe     4  0.4584620000000 -0.0613600000000  0.0363180000000 1.0   3.76
Fe     4 -0.0613600000000  0.0363180000000  0.4584620000000 1.0   3.76
Fe     4 -0.6000120000000 -0.6000120000000 -0.6000120000000 1.0   0.72
END
