TITL LFSO-Li2Fe3S3O-201025-072016-996b45 0.0780 337.531100 -8.66906302E+003 23.9998 24.2068 18 (P3) n - 1
REM
REM Run started: Sun, 25 Oct 2020 16:07:16 +0000 in /lustre/scratch/uccabz1/launch_tmp/launcher_2020-10-25-07-20-14-599144
REM CASTEP 20.1 from code version af48c487+ pr-geom-scf-spinfix Tue Jun 2 15:39:59 2020 +0100
REM Functional Perdew Burke Ernzerhof Relativity Koelling-Harmon Dispersion off
REM Cut-off 340.0000 eV Grid scale 1.7500 Gmax 16.5316 1/A FBSC none
REM MP grid 3 3 2 Offset 0.000 0.000 0.000 No. kpts 5 Spacing 0.07
REM Total runtime: 32783.6 s
REM Overall efficiency: 75.1429 %
REM
REM
REM
REM compiler GCC version 4.9.2
REM options -cpp -iprefix /lustre/shared/ucl/apps/gcc/4.9.2/bin/../lib/gcc/x86_64-unknown-linux-gnu/4.9.2/ -mtune=corei7 -march=x86-64 -g -Og
REM COMMAND_LINE
REM seed 1822849 1810769083 -1683543487 1492590514 -2106443705 -862201380 -663056370 -2106880656 273606673 1672277724 -2053601202 -1550785540
REM
REM S 3|1.8|5|6|7|30:31:32(qc=5)
REM O 2|1.5|12|13|15|20:21(qc=5)
REM Li 1|1.3|8|9|10|10U:20(qc=5)
REM Fe 3|2.2|2.0|1.0|8|9|10|40:41:32(qc=5)
REM Fe d:4.0 
REM
CELL 1.54180    6.59301    6.59301    8.96634   90.00000   90.00000  120.00000
LATT -1
SFAC Li O  S  Fe 
Li     1  0.0058980000000  0.5308200000000  0.3871460000000 1.0  -0.04
Li     1 -0.5308200000000  0.4750790000000  0.3871460000000 1.0  -0.04
Li     1 -0.4750790000000 -0.0058980000000  0.3871460000000 1.0  -0.04
Li     1 -0.0000000000000  0.0000000000000  0.1719690000000 1.0  -0.00
O      2  0.3333330000000 -0.3333330000000  0.2748350000000 1.0   0.11
O      2 -0.3333330000000  0.3333330000000  0.2476790000000 1.0   0.15
S      3  0.3406280000000  0.0102480000000 -0.3795330000000 1.0   0.11
S      3 -0.0102480000000  0.3303800000000 -0.3795330000000 1.0   0.11
S      3 -0.3303800000000 -0.3406280000000 -0.3795330000000 1.0   0.11
S      3  0.2815810000000  0.2967970000000  0.0066230000000 1.0   0.13
S      3 -0.2967970000000 -0.0152160000000  0.0066230000000 1.0   0.13
S      3  0.0152160000000 -0.2815810000000  0.0066230000000 1.0   0.13
Fe     4 -0.3405750000000 -0.0166400000000 -0.2683740000000 1.0   3.88
Fe     4  0.0166400000000 -0.3239350000000 -0.2683740000000 1.0   3.88
Fe     4  0.3239350000000  0.3405750000000 -0.2683740000000 1.0   3.88
Fe     4 -0.3886260000000 -0.4027130000000  0.1185280000000 1.0   3.84
Fe     4  0.4027130000000  0.0140870000000  0.1185280000000 1.0   3.84
Fe     4 -0.0140870000000  0.3886260000000  0.1185280000000 1.0   3.84
END
