TITL LFSO-Li3FeS2O-201024-134214-33b2b8 0.0555 101.106124 -2.50739743E+003 3.03433 3.73365 7 (P-1) n - 1
REM
REM Run started: Sat, 24 Oct 2020 15:12:42 +0100 in /scratch/scratch/uccabz1/launch_tmp/launcher_2020-10-24-12-42-12-382348
REM CASTEP 19.11| from code version Version unavailable
REM Functional Perdew Burke Ernzerhof Relativity Koelling-Harmon Dispersion off
REM Cut-off 340.0000 eV Grid scale 1.7500 Gmax 16.5316 1/A FBSC none
REM MP grid 4 6 3 Offset 0.000 0.000 0.000 No. kpts 36 Spacing 0.07
REM Total runtime: 5619.62 s
REM Overall efficiency: 94 %
REM
REM
REM
REM compiler GCC version 4.9.2
REM options -cpp -iprefix /scratch/UCL/applications/gcc/4.9.2/bin/../lib/gcc/x86_64-unknown-linux-gnu/4.9.2/ -mtune=corei7 -march=x86-64 -g -O2
REM COMMAND_LINE
REM seed 2001091298 279273621 483235014 47203066 -1837587708 1511441932 -958139192 -1843057913 -961799713 -1150723359 1166905467 1306199641
REM
REM S 3|1.8|5|6|7|30:31:32(qc=5)
REM O 2|1.5|12|13|15|20:21(qc=5)
REM Li 1|1.3|8|9|10|10U:20(qc=5)
REM Fe 3|2.2|2.0|1.0|8|9|10|40:41:32(qc=5)
REM Fe d:4.0 
REM
CELL 1.54180    5.73082    3.87255    7.37294   72.65450  120.50493  133.95164
LATT -1
SFAC Li O  S  Fe 
Li     1  0.2405320000000  0.4830850000000  0.0016960000000 1.0  -0.00
Li     1 -0.2405320000000 -0.4830850000000 -0.0016960000000 1.0  -0.00
Li     1  0.0000000000000 -0.5000000000000  0.5000000000000 1.0  -0.04
O      2 -0.5000000000000  0.0000000000000 -0.5000000000000 1.0  -0.04
S      3  0.1089780000000 -0.0308820000000 -0.2188060000000 1.0  -0.15
S      3 -0.1089780000000  0.0308820000000  0.2188060000000 1.0  -0.15
Fe     4  0.5000000000000 -0.5000000000000  0.5000000000000 1.0   3.42
END
