TITL LFSO-Li2Fe2S2O-201022-050912-3b5835 0.0514 151.139474 -3.16743859E+003 7.60283 7.76065 7 (Pm) n - 1
REM
REM Run started: Thu, 22 Oct 2020 07:19:11 +0100 in /lustre/scratch/uccabz1/launch_tmp/launcher_2020-10-22-04-09-10-773893
REM CASTEP 20.1 from code version af48c487+ pr-geom-scf-spinfix Tue Jun 2 15:39:59 2020 +0100
REM Functional Perdew Burke Ernzerhof Relativity Koelling-Harmon Dispersion off
REM Cut-off 340.0000 eV Grid scale 1.7500 Gmax 16.5316 1/A FBSC none
REM MP grid 4 5 2 Offset 0.000 0.000 0.000 No. kpts 10 Spacing 0.07
REM Total runtime: 8485.47 s
REM Overall efficiency: 74.3077 %
REM
REM
REM
REM compiler GCC version 4.9.2
REM options -cpp -iprefix /lustre/shared/ucl/apps/gcc/4.9.2/bin/../lib/gcc/x86_64-unknown-linux-gnu/4.9.2/ -mtune=corei7 -march=x86-64 -g -Og
REM COMMAND_LINE
REM seed -529626723 1729723263 -1705007891 1655632070 -1243053929 -30620044 -645638969 -1873791582 975349813 1839333830 1407437354 -804440643
REM
REM S 3|1.8|5|6|7|30:31:32(qc=5)
REM O 2|1.5|12|13|15|20:21(qc=5)
REM Li 1|1.3|8|9|10|10U:20(qc=5)
REM Fe 3|2.2|2.0|1.0|8|9|10|40:41:32(qc=5)
REM Fe d:4.0 
REM
CELL 1.54180    4.11527    3.42432   12.07952   90.00000   90.00000  117.39158
LATT -1
SFAC Li O  S  Fe 
Li     1 -0.0701920000000  0.5051250000000  0.4089810000000 1.0  -0.05
Li     1 -0.0701920000000  0.5051250000000 -0.4089810000000 1.0  -0.05
O      2 -0.0629890000000  0.0123130000000 -0.5000000000000 1.0   0.43
S      3  0.2509330000000 -0.2440720000000  0.1841250000000 1.0   0.06
S      3  0.2509330000000 -0.2440720000000 -0.1841250000000 1.0   0.06
Fe     4 -0.1399990000000  0.0374650000000  0.1420460000000 1.0   3.57
Fe     4 -0.1399990000000  0.0374650000000 -0.1420460000000 1.0   3.57
END
