TITL LFSO-Li5FeS2O2-201026-055001-8d323d 0.0874 655.015069 -6.68612716E+003 5.71809 6.21172 20 (Pnn2) n - 1
REM
REM Run started: Mon, 26 Oct 2020 14:00:17 +0000 in /scratch/scratch/uccabz1/launch_tmp/launcher_2020-10-26-05-49-59-339815
REM CASTEP 19.11| from code version Version unavailable
REM Functional Perdew Burke Ernzerhof Relativity Koelling-Harmon Dispersion off
REM Cut-off 340.0000 eV Grid scale 1.7500 Gmax 16.5316 1/A FBSC none
REM MP grid 5 3 1 Offset 0.000 0.000 0.000 No. kpts 6 Spacing 0.07
REM Total runtime: 34726.6 s
REM Overall efficiency: 92.5833 %
REM
REM
REM
REM compiler GCC version 4.9.2
REM options -cpp -iprefix /scratch/UCL/applications/gcc/4.9.2/bin/../lib/gcc/x86_64-unknown-linux-gnu/4.9.2/ -mtune=corei7 -march=x86-64 -g -O2
REM COMMAND_LINE
REM seed -2081477458 1524925630 2136575023 -1117093030 101475886 -111321761 -97074134 813573405 -1145587230 1608953902 -837829305 1923704459
REM
REM S 3|1.8|5|6|7|30:31:32(qc=5)
REM O 2|1.5|12|13|15|20:21(qc=5)
REM Li 1|1.3|8|9|10|10U:20(qc=5)
REM Fe 3|2.2|2.0|1.0|8|9|10|40:41:32(qc=5)
REM Fe d:4.0 
REM
CELL 1.54180    3.01971    4.75458   45.62201   90.00000   90.00000   90.00000
LATT -1
SFAC Li O  S  Fe 
Li     1 -0.1960990000000 -0.5533490000000  0.2029950000000 1.0  -0.00
Li     1  0.1960990000000 -0.5533490000000 -0.2029950000000 1.0  -0.00
Li     1  0.3039010000000 -0.0533490000000  0.2970050000000 1.0  -0.00
Li     1 -0.3039010000000 -0.0533490000000 -0.2970050000000 1.0  -0.00
Li     1  0.3040040000000 -0.3342740000000  0.2557500000000 1.0   0.00
Li     1 -0.3040040000000 -0.3342740000000 -0.2557500000000 1.0   0.00
Li     1 -0.1959960000000  0.1657260000000  0.2442500000000 1.0   0.00
Li     1  0.1959960000000  0.1657260000000 -0.2442500000000 1.0   0.00
Li     1  0.0000000000000 -0.4651490000000 -0.0000000000000 1.0  -0.09
Li     1 -0.5000000000000  0.0348510000000 -0.5000000000000 1.0  -0.09
O      2 -0.1966040000000 -0.1251210000000  0.2754040000000 1.0   0.00
O      2  0.1966040000000 -0.1251210000000 -0.2754040000000 1.0   0.00
O      2  0.3033960000000  0.3748790000000  0.2245960000000 1.0   0.00
O      2 -0.3033960000000  0.3748790000000 -0.2245960000000 1.0   0.00
S      3 -0.0000620000000  0.5409750000000  0.4640350000000 1.0   0.06
S      3  0.0000620000000  0.5409750000000 -0.4640350000000 1.0   0.06
S      3  0.4999380000000  0.0409750000000  0.0359650000000 1.0   0.06
S      3 -0.4999380000000  0.0409750000000 -0.0359650000000 1.0   0.06
Fe     4  0.0000000000000  0.0362990000000 -0.0000000000000 1.0   2.82
Fe     4 -0.5000000000000 -0.4637010000000 -0.5000000000000 1.0   2.82
END
