TITL LFSO-Li4Fe3S4O-201029-085238-183f36 0.0359 252.674108 -5.03884718E+003 12.0000 12.0793 12 (R3) n - 1
REM
REM Run started: Thu, 29 Oct 2020 09:52:28 +0000 in /scratch/scratch/uccabz1/launch_tmp/launcher_2020-10-29-08-52-36-510807
REM CASTEP 19.11| from code version Version unavailable
REM Functional Perdew Burke Ernzerhof Relativity Koelling-Harmon Dispersion off
REM Cut-off 340.0000 eV Grid scale 1.7500 Gmax 16.5316 1/A FBSC none
REM MP grid 3 3 3 Offset 0.000 0.000 0.000 No. kpts 6 Spacing 0.07
REM Total runtime: 4697.07 s
REM Overall efficiency: 70.6667 %
REM
REM
REM
REM compiler GCC version 4.9.2
REM options -cpp -iprefix /scratch/UCL/applications/gcc/4.9.2/bin/../lib/gcc/x86_64-unknown-linux-gnu/4.9.2/ -mtune=corei7 -march=x86-64 -g -O2
REM COMMAND_LINE
REM seed -1872573793 -1693328028 -1598018966 -647299315 -1607196318 1432345569 -11056411 295043643 -1462232383 -96773951 377893498 1628768494
REM
REM S 3|1.8|5|6|7|30:31:32(qc=5)
REM O 2|1.5|12|13|15|20:21(qc=5)
REM Li 1|1.3|8|9|10|10U:20(qc=5)
REM Fe 3|2.2|2.0|1.0|8|9|10|40:41:32(qc=5)
REM Fe d:4.0 
REM
CELL 1.54180    7.44504    7.44504    7.44504   54.25393   54.25393   54.25393
LATT -1
SFAC Li O  S  Fe 
Li     1 -0.3856500000000  0.5450100000000  0.1553340000000 1.0  -0.00
Li     1  0.5450100000000  0.1553340000000 -0.3856500000000 1.0  -0.00
Li     1  0.1553340000000 -0.3856500000000  0.5450100000000 1.0  -0.00
Li     1 -0.4368940000000 -0.4368940000000 -0.4368940000000 1.0  -0.06
O      2  0.4706910000000  0.4706910000000  0.4706910000000 1.0   0.03
S      3  0.3673200000000 -0.0371600000000 -0.3931020000000 1.0   0.13
S      3 -0.0371600000000 -0.3931020000000  0.3673200000000 1.0   0.13
S      3 -0.3931020000000  0.3673200000000 -0.0371600000000 1.0   0.13
S      3 -0.1479190000000 -0.1479190000000 -0.1479190000000 1.0   0.17
Fe     4 -0.3455130000000 -0.0371380000000  0.2063090000000 1.0   3.82
Fe     4 -0.0371380000000  0.2063090000000 -0.3455130000000 1.0   3.82
Fe     4  0.2063090000000 -0.3455130000000 -0.0371380000000 1.0   3.82
END
