TITL LFSO-Li2Fe4S3O2-201025-174532-c1c48e -0.0028 197.556816 -5.63502741E+003 16.0003 16.1355 11 (P3) n - 1
REM
REM Run started: Sun, 25 Oct 2020 18:18:29 +0000 in /scratch/scratch/uccabz1/launch_tmp/launcher_2020-10-25-17-44-04-146712
REM CASTEP 19.11| from code version Version unavailable
REM Functional Perdew Burke Ernzerhof Relativity Koelling-Harmon Dispersion off
REM Cut-off 340.0000 eV Grid scale 1.7500 Gmax 16.5316 1/A FBSC none
REM MP grid 4 3 3 Offset 0.000 0.000 0.000 No. kpts 10 Spacing 0.07
REM Total runtime: 2500.9 s
REM Overall efficiency: 79.3333 %
REM
REM
REM
REM compiler GCC version 4.9.2
REM options -cpp -iprefix /scratch/UCL/applications/gcc/4.9.2/bin/../lib/gcc/x86_64-unknown-linux-gnu/4.9.2/ -mtune=corei7 -march=x86-64 -g -O2
REM COMMAND_LINE
REM seed -320668704 -1214411505 1095959437 1215866204 981507229 -2984657 -2130139143 1721414662 1302610380 2090416781 -2059673666 1909214746
REM
REM S 3|1.8|5|6|7|30:31:32(qc=5)
REM O 2|1.5|12|13|15|20:21(qc=5)
REM Li 1|1.3|8|9|10|10U:20(qc=5)
REM Fe 3|2.2|2.0|1.0|8|9|10|40:41:32(qc=5)
REM Fe d:4.0 
REM
CELL 1.54180    4.75140    6.92899    6.92899  120.00000   90.00000   90.00000
LATT -1
SFAC Li O  S  Fe 
Li     1  0.5850840000000 -0.0000000000000 -0.0000000000000 1.0  -0.06
Li     1 -0.1393050000000  0.3333330000000 -0.3333330000000 1.0  -0.06
O      2 -0.6773350000000 -0.3333330000000  0.3333330000000 1.0   0.16
O      2  0.3193230000000  0.3333330000000 -0.3333330000000 1.0   0.16
S      3 -0.1679760000000 -0.3056350000000  0.0033280000000 1.0   0.14
S      3 -0.1679760000000 -0.0033280000000 -0.3089630000000 1.0   0.14
S      3 -0.1679760000000  0.3089630000000  0.3056350000000 1.0   0.14
Fe     4  0.3521230000000  0.0044070000000 -0.4366770000000 1.0   3.84
Fe     4  0.3521230000000  0.4366770000000  0.4410840000000 1.0   3.84
Fe     4  0.3521230000000 -0.4410840000000 -0.0044070000000 1.0   3.84
Fe     4 -0.1490450000000 -0.3333330000000  0.3333330000000 1.0   3.84
END
