TITL LFSO-Li4Fe2S3O-201026-141933-94619d 0.1367 344.774129 -7.74779472E+003 16.0000 16.1484 20 (P-1) n - 1
REM
REM Run started: Mon, 26 Oct 2020 22:25:12 +0000 in /scratch/scratch/uccabz1/launch_tmp/launcher_2020-10-26-14-19-31-505199
REM CASTEP 19.11| from code version Version unavailable
REM Functional Perdew Burke Ernzerhof Relativity Koelling-Harmon Dispersion off
REM Cut-off 340.0000 eV Grid scale 1.7500 Gmax 16.5316 1/A FBSC none
REM MP grid 4 2 3 Offset 0.000 0.000 0.000 No. kpts 12 Spacing 0.07
REM Total runtime: 33333.2 s
REM Overall efficiency: 75.25 %
REM
REM
REM
REM compiler GCC version 4.9.2
REM options -cpp -iprefix /scratch/UCL/applications/gcc/4.9.2/bin/../lib/gcc/x86_64-unknown-linux-gnu/4.9.2/ -mtune=corei7 -march=x86-64 -g -O2
REM COMMAND_LINE
REM seed -2054095274 -626226441 -2053995039 -959855385 -1042144106 -1687763264 1862043842 -752134665 2053937685 138887665 1980310684 1624104952
REM
REM S 3|1.8|5|6|7|30:31:32(qc=5)
REM O 2|1.5|12|13|15|20:21(qc=5)
REM Li 1|1.3|8|9|10|10U:20(qc=5)
REM Fe 3|2.2|2.0|1.0|8|9|10|40:41:32(qc=5)
REM Fe d:4.0 
REM
CELL 1.54180    7.01539   12.45110    6.35555   84.94617   75.87980   40.41067
LATT -1
SFAC Li O  S  Fe 
Li     1  0.4065010000000  0.0541820000000 -0.1845800000000 1.0   0.01
Li     1 -0.4065010000000 -0.0541820000000  0.1845800000000 1.0   0.01
Li     1 -0.0539400000000  0.1515160000000  0.0813680000000 1.0   0.02
Li     1  0.0539400000000 -0.1515160000000 -0.0813680000000 1.0   0.02
Li     1  0.4013720000000  0.2198100000000  0.1074080000000 1.0  -0.07
Li     1 -0.4013720000000 -0.2198100000000 -0.1074080000000 1.0  -0.07
Li     1  0.6540620000000  0.4277270000000 -0.2606180000000 1.0   0.00
Li     1 -0.6540620000000 -0.4277270000000  0.2606180000000 1.0   0.00
O      2  0.3379390000000 -0.0419440000000  0.1073660000000 1.0   0.14
O      2 -0.3379390000000  0.0419440000000 -0.1073660000000 1.0   0.14
S      3 -0.1146400000000  0.4071210000000  0.0492530000000 1.0   0.11
S      3  0.1146400000000 -0.4071210000000 -0.0492530000000 1.0   0.11
S      3 -0.0539520000000 -0.1187390000000  0.3461270000000 1.0   0.12
S      3  0.0539520000000  0.1187390000000 -0.3461270000000 1.0   0.12
S      3 -0.4187210000000 -0.3461870000000 -0.3830850000000 1.0   0.08
S      3  0.4187210000000  0.3461870000000  0.3830850000000 1.0   0.08
Fe     4  0.0692330000000 -0.5394600000000 -0.2643220000000 1.0   3.80
Fe     4 -0.0692330000000  0.5394600000000  0.2643220000000 1.0   3.80
Fe     4 -0.7232010000000 -0.1116520000000  0.3707230000000 1.0   3.79
Fe     4  0.7232010000000  0.1116520000000 -0.3707230000000 1.0   3.79
END
