TITL LFSO-Li2Fe4S3O2-201026-021836-2945a9 -0.0033 420.215642 -1.12692004E+004 31.9999 32.2996 22 (I222) n - 1
REM
REM Run started: Mon, 26 Oct 2020 14:30:41 +0000 in /scratch/scratch/uccabz1/launch_tmp/launcher_2020-10-26-02-18-34-915333
REM CASTEP 19.11| from code version Version unavailable
REM Functional Perdew Burke Ernzerhof Relativity Koelling-Harmon Dispersion off
REM Cut-off 340.0000 eV Grid scale 1.7500 Gmax 16.5316 1/A FBSC none
REM MP grid 3 2 3 Offset 0.000 0.000 0.000 No. kpts 9 Spacing 0.07
REM Total runtime: 46389.7 s
REM Overall efficiency: 75.2 %
REM
REM
REM
REM compiler GCC version 4.9.2
REM options -cpp -iprefix /scratch/UCL/applications/gcc/4.9.2/bin/../lib/gcc/x86_64-unknown-linux-gnu/4.9.2/ -mtune=corei7 -march=x86-64 -g -O2
REM COMMAND_LINE
REM seed -968601598 -287396014 422266209 -125585714 1204271201 1461947131 -1810356994 1543016547 -408359959 -1708011627 2097537016 -618608533
REM
REM S 3|1.8|5|6|7|30:31:32(qc=5)
REM O 2|1.5|12|13|15|20:21(qc=5)
REM Li 1|1.3|8|9|10|10U:20(qc=5)
REM Fe 3|2.2|2.0|1.0|8|9|10|40:41:32(qc=5)
REM Fe d:4.0 
REM
CELL 1.54180    8.58462    8.58462    8.58462   90.56329  132.40868  108.40638
LATT -1
SFAC Li O  S  Fe 
Li     1  0.1577820000000  0.2952630000000  0.4757850000000 1.0  -0.07
Li     1 -0.1805220000000 -0.3180030000000 -0.4757850000000 1.0  -0.07
Li     1 -0.1577820000000  0.3180030000000  0.1374810000000 1.0  -0.07
Li     1  0.1805220000000 -0.2952630000000 -0.1374810000000 1.0  -0.07
O      2  0.1215700000000 -0.4681390000000  0.3590950000000 1.0   0.20
O      2  0.1727660000000 -0.2375250000000 -0.3590950000000 1.0   0.20
O      2 -0.1215700000000  0.2375250000000  0.4102910000000 1.0   0.20
O      2 -0.1727660000000  0.4681390000000 -0.4102910000000 1.0   0.20
S      3 -0.3290210000000 -0.2966080000000 -0.3084610000000 1.0   0.13
S      3  0.0118530000000 -0.0205600000000  0.3084610000000 1.0   0.13
S      3  0.3290210000000  0.0205600000000  0.0324140000000 1.0   0.13
S      3 -0.0118530000000  0.2966080000000 -0.0324140000000 1.0   0.13
S      3 -0.5000000000000  0.3480650000000 -0.1519350000000 1.0   0.10
S      3  0.5000000000000 -0.3480650000000  0.1519350000000 1.0   0.10
Fe     4 -0.0230200000000 -0.3056200000000  0.3025170000000 1.0   3.88
Fe     4  0.3918630000000 -0.3255370000000 -0.3025170000000 1.0   3.88
Fe     4  0.0230200000000  0.3255370000000 -0.2826000000000 1.0   3.88
Fe     4 -0.3918630000000  0.3056200000000  0.2826000000000 1.0   3.88
Fe     4 -0.3117170000000 -0.0256970000000  0.2453510000000 1.0   3.81
Fe     4 -0.2710480000000 -0.5570670000000 -0.2453510000000 1.0   3.81
Fe     4  0.3117170000000  0.5570670000000  0.2860190000000 1.0   3.81
Fe     4  0.2710480000000  0.0256970000000 -0.2860190000000 1.0   3.81
END
