TITL LFSO-Li3FeS2O-201022-210435-6fbdb0 0.0632 365.281272 -7.52247527E+003 14.9990 15.0647 21 (P31) n - 1
REM
REM Run started: Thu, 22 Oct 2020 23:58:15 +0100 in /lustre/scratch/uccabz1/launch_tmp/launcher_2020-10-22-20-04-34-154513
REM CASTEP 20.1 from code version af48c487+ pr-geom-scf-spinfix Tue Jun 2 15:39:59 2020 +0100
REM Functional Perdew Burke Ernzerhof Relativity Koelling-Harmon Dispersion off
REM Cut-off 340.0000 eV Grid scale 1.7500 Gmax 16.5316 1/A FBSC none
REM MP grid 3 3 2 Offset 0.000 0.000 0.000 No. kpts 5 Spacing 0.07
REM Total runtime: 10636.4 s
REM Overall efficiency: 70.875 %
REM
REM
REM
REM compiler GCC version 4.9.2
REM options -cpp -iprefix /lustre/shared/ucl/apps/gcc/4.9.2/bin/../lib/gcc/x86_64-unknown-linux-gnu/4.9.2/ -mtune=corei7 -march=x86-64 -g -Og
REM COMMAND_LINE
REM seed -1570506646 555452178 -834322899 488286568 -2006087675 2038718223 -1582337765 1965985981 -1231842580 -260634568 -2019909324 -1248985484
REM
REM S 3|1.8|5|6|7|30:31:32(qc=5)
REM O 2|1.5|12|13|15|20:21(qc=5)
REM Li 1|1.3|8|9|10|10U:20(qc=5)
REM Fe 3|2.2|2.0|1.0|8|9|10|40:41:32(qc=5)
REM Fe d:4.0 
REM
CELL 1.54180    6.61199    6.61199    9.64790   90.00000   90.00000  120.00000
LATT -1
SFAC Li O  S  Fe 
Li     1 -0.3529660000000  0.4720790000000  0.1622630000000 1.0   0.06
Li     1 -0.4720790000000  0.1749550000000  0.4955960000000 1.0   0.06
Li     1 -0.1749550000000  0.3529660000000 -0.1710710000000 1.0   0.06
Li     1 -0.0848390000000 -0.1624850000000 -0.0068640000000 1.0  -0.05
Li     1  0.1624850000000  0.0776470000000  0.3264700000000 1.0  -0.05
Li     1 -0.0776470000000  0.0848390000000 -0.3401970000000 1.0  -0.05
Li     1  0.1428310000000  0.3085310000000 -0.0450810000000 1.0   0.00
Li     1 -0.3085310000000 -0.1657000000000  0.2882520000000 1.0   0.00
Li     1  0.1657000000000 -0.1428310000000 -0.3784140000000 1.0   0.00
O      2 -0.1401940000000  0.0627380000000 -0.1244710000000 1.0   0.30
O      2 -0.0627380000000 -0.2029320000000  0.2088630000000 1.0   0.30
O      2  0.2029320000000  0.1401940000000  0.5421960000000 1.0   0.30
S      3  0.2886810000000  0.4804530000000  0.2726860000000 1.0   0.35
S      3 -0.4804530000000 -0.1917720000000 -0.3939800000000 1.0   0.35
S      3  0.1917720000000 -0.2886810000000 -0.0606470000000 1.0   0.35
S      3 -0.0890800000000  0.4427330000000 -0.4114310000000 1.0   0.35
S      3 -0.4427330000000  0.4681870000000 -0.0780980000000 1.0   0.35
S      3 -0.4681870000000  0.0890800000000  0.2552350000000 1.0   0.35
Fe     4  0.2017310000000 -0.2384410000000  0.1825840000000 1.0   3.99
Fe     4  0.2384410000000 -0.5598280000000 -0.4840830000000 1.0   3.99
Fe     4  0.5598280000000 -0.2017310000000 -0.1507500000000 1.0   3.99
END
