TITL LFSO-Li5FeS2O2-201025-101432-53bca3 0.0026 148.104628 -3.34458879E+003 3.18464 3.79196 10 (Cm) n - 1
REM
REM Run started: Sun, 25 Oct 2020 10:59:48 +0000 in /scratch/scratch/uccabz1/launch_tmp/launcher_2020-10-25-10-14-31-190757
REM CASTEP 19.11| from code version Version unavailable
REM Functional Perdew Burke Ernzerhof Relativity Koelling-Harmon Dispersion off
REM Cut-off 340.0000 eV Grid scale 1.7500 Gmax 16.5316 1/A FBSC none
REM MP grid 3 4 3 Offset 0.000 0.000 0.000 No. kpts 18 Spacing 0.07
REM Total runtime: 3055.77 s
REM Overall efficiency: 84.5714 %
REM
REM
REM
REM compiler GCC version 4.9.2
REM options -cpp -iprefix /scratch/UCL/applications/gcc/4.9.2/bin/../lib/gcc/x86_64-unknown-linux-gnu/4.9.2/ -mtune=corei7 -march=x86-64 -g -O2
REM COMMAND_LINE
REM seed -1815354766 42146986 -730935336 -1834980243 497948942 1138990825 19466923 -1181521083 436816829 1337067663 -1021078716 2053149834
REM
REM S 3|1.8|5|6|7|30:31:32(qc=5)
REM O 2|1.5|12|13|15|20:21(qc=5)
REM Li 1|1.3|8|9|10|10U:20(qc=5)
REM Fe 3|2.2|2.0|1.0|8|9|10|40:41:32(qc=5)
REM Fe d:4.0 
REM
CELL 1.54180    5.15869    5.15869    6.59345  113.82095  103.17662  101.09505
LATT -1
SFAC Li O  S  Fe 
Li     1  0.0465150000000  0.0690360000000 -0.4158820000000 1.0  -0.03
Li     1  0.5150820000000 -0.4623970000000 -0.4158820000000 1.0  -0.03
Li     1  0.1339490000000 -0.4082830000000  0.2633190000000 1.0   0.01
Li     1  0.6716020000000  0.1293710000000  0.2633190000000 1.0   0.01
Li     1 -0.3915420000000  0.1681600000000 -0.2233820000000 1.0   0.02
O      2  0.2695020000000 -0.2239670000000  0.5867330000000 1.0   0.04
O      2 -0.1893000000000  0.3172310000000  0.5867330000000 1.0   0.04
S      3  0.3088040000000  0.2287290000000  0.0484000000000 1.0  -0.12
S      3 -0.1803290000000 -0.2604040000000  0.0484000000000 1.0  -0.12
Fe     4  0.0720580000000 -0.2777000000000 -0.2056420000000 1.0   3.38
END
