TITL LFSO-Li4Fe2S3O-201027-024040-b2c68b 0.0509 151.904363 -3.87193998E+003 7.99999 8.15565 10 (Immm) n - 1
REM
REM Run started: Tue, 27 Oct 2020 05:11:21 +0000 in /scratch/scratch/uccabz1/launch_tmp/launcher_2020-10-27-02-40-39-249677
REM CASTEP 19.11| from code version Version unavailable
REM Functional Perdew Burke Ernzerhof Relativity Koelling-Harmon Dispersion off
REM Cut-off 340.0000 eV Grid scale 1.7500 Gmax 16.5316 1/A FBSC none
REM MP grid 3 4 3 Offset 0.000 0.000 0.000 No. kpts 12 Spacing 0.07
REM Total runtime: 10222.7 s
REM Overall efficiency: 92.1429 %
REM
REM
REM
REM compiler GCC version 4.9.2
REM options -cpp -iprefix /scratch/UCL/applications/gcc/4.9.2/bin/../lib/gcc/x86_64-unknown-linux-gnu/4.9.2/ -mtune=corei7 -march=x86-64 -g -O2
REM COMMAND_LINE
REM seed 535420390 1571199021 -277377019 -371385517 281740706 -1355026582 -849200289 1712552509 583414463 543674257 1684739055 1778622944
REM
REM S 3|1.8|5|6|7|30:31:32(qc=5)
REM O 2|1.5|12|13|15|20:21(qc=5)
REM Li 1|1.3|8|9|10|10U:20(qc=5)
REM Fe 3|2.2|2.0|1.0|8|9|10|40:41:32(qc=5)
REM Fe d:4.0 
REM
CELL 1.54180    6.11194    3.72590    7.57003  104.24653  113.80920   90.00000
LATT -1
SFAC Li O  S  Fe 
Li     1  0.1071490000000 -0.6657350000000 -0.3314700000000 1.0  -0.04
Li     1 -0.4386190000000  0.3342660000000 -0.3314700000000 1.0  -0.04
Li     1  0.4386190000000  0.6657350000000  0.3314700000000 1.0  -0.04
Li     1 -0.1071490000000 -0.3342660000000  0.3314700000000 1.0  -0.04
O      2  0.5000000000000  0.5000000000000  1.0000000000000 1.0   0.20
S      3  0.3079540000000 -0.1920460000000 -0.3840910000000 1.0   0.08
S      3 -0.3079540000000  0.1920460000000  0.3840910000000 1.0   0.08
S      3  0.0000000000000  0.5000000000000  0.0000000000000 1.0   0.06
Fe     4 -0.2989030000000  0.0000000000000  0.0000000000000 1.0   3.87
Fe     4  0.2989030000000  0.0000000000000  0.0000000000000 1.0   3.87
END
