TITL LFSO-Li6FeSO3-201028-051107-ecb64f -0.0462 160.839299 -3.67573286E+003 3.99943 4.10603 11 (C222) n - 1
REM
REM Run started: Wed, 28 Oct 2020 05:26:11 +0000 in /lustre/scratch/uccabz1/launch_tmp/launcher_2020-10-28-05-11-05-403990
REM CASTEP 20.1 from code version af48c487+ pr-geom-scf-spinfix Tue Jun 2 15:39:59 2020 +0100
REM Functional Perdew Burke Ernzerhof Relativity Koelling-Harmon Dispersion off
REM Cut-off 340.0000 eV Grid scale 1.7500 Gmax 16.5316 1/A FBSC none
REM MP grid 3 3 3 Offset 0.000 0.000 0.000 No. kpts 8 Spacing 0.07
REM Total runtime: 1061.15 s
REM Overall efficiency: 75 %
REM
REM
REM
REM compiler GCC version 4.9.2
REM options -cpp -iprefix /lustre/shared/ucl/apps/gcc/4.9.2/bin/../lib/gcc/x86_64-unknown-linux-gnu/4.9.2/ -mtune=corei7 -march=x86-64 -g -Og
REM COMMAND_LINE
REM seed 210272408 -1610521875 -940786152 -606725775 773853198 -763848922 -1104198574 1608198721 -2122100861 -1387187865 1688135802 74185414
REM
REM S 3|1.8|5|6|7|30:31:32(qc=5)
REM O 2|1.5|12|13|15|20:21(qc=5)
REM Li 1|1.3|8|9|10|10U:20(qc=5)
REM Fe 3|2.2|2.0|1.0|8|9|10|40:41:32(qc=5)
REM Fe d:4.0 
REM
CELL 1.54180    4.60069    6.22948    6.22948   64.27338   90.00000   90.00000
LATT -1
SFAC Li O  S  Fe 
Li     1  0.2748250000000  0.2121720000000 -0.4001850000000 1.0  -0.02
Li     1  0.2748250000000 -0.2121720000000  0.4001850000000 1.0  -0.02
Li     1 -0.2748250000000 -0.4001850000000  0.2121720000000 1.0  -0.02
Li     1 -0.2748250000000  0.4001850000000 -0.2121720000000 1.0  -0.02
Li     1 -0.0000000000000 -0.2933590000000 -0.2933590000000 1.0  -0.04
Li     1 -0.0000000000000  0.2933590000000  0.2933590000000 1.0  -0.04
O      2  0.1364870000000  0.0000000000000  0.5000000000000 1.0   0.11
O      2 -0.1364870000000 -0.5000000000000  0.0000000000000 1.0   0.11
O      2 -0.0000000000000  0.5000000000000 -0.5000000000000 1.0   0.04
S      3  0.5000000000000  0.0000000000000  0.0000000000000 1.0   0.04
Fe     4 -0.0000000000000  0.0000000000000  0.0000000000000 1.0   3.88
END
