TITL LFSO-Li2Fe2S2O-201022-064504-58f47d 0.0055 254.070244 -6.33844823E+003 16.0001 16.1972 14 (P3) n - 1
REM
REM Run started: Thu, 22 Oct 2020 08:22:35 +0100 in /scratch/scratch/uccabz1/launch_tmp/launcher_2020-10-22-05-45-03-346850
REM CASTEP 19.11| from code version Version unavailable
REM Functional Perdew Burke Ernzerhof Relativity Koelling-Harmon Dispersion off
REM Cut-off 340.0000 eV Grid scale 1.7500 Gmax 16.5316 1/A FBSC none
REM MP grid 3 3 3 Offset 0.000 0.000 0.000 No. kpts 8 Spacing 0.07
REM Total runtime: 6550.18 s
REM Overall efficiency: 74.3333 %
REM
REM
REM
REM compiler GCC version 4.9.2
REM options -cpp -iprefix /scratch/UCL/applications/gcc/4.9.2/bin/../lib/gcc/x86_64-unknown-linux-gnu/4.9.2/ -mtune=corei7 -march=x86-64 -g -O2
REM COMMAND_LINE
REM seed -208736920 -484435748 239985062 534803285 -826965911 204105898 723869519 -1633090403 -1238654654 647990326 561515335 -462417570
REM
REM S 3|1.8|5|6|7|30:31:32(qc=5)
REM O 2|1.5|12|13|15|20:21(qc=5)
REM Li 1|1.3|8|9|10|10U:20(qc=5)
REM Fe 3|2.2|2.0|1.0|8|9|10|40:41:32(qc=5)
REM Fe d:4.0 
REM
CELL 1.54180    6.00023    6.99242    6.99242  120.00000   90.00000   90.00000
LATT -1
SFAC Li O  S  Fe 
Li     1 -0.3620060000000  0.1507630000000  0.4269380000000 1.0  -0.02
Li     1 -0.3620060000000 -0.4269380000000 -0.2761750000000 1.0  -0.02
Li     1 -0.3620060000000  0.2761750000000 -0.1507630000000 1.0  -0.02
Li     1 -0.2944060000000 -0.3333330000000  0.3333330000000 1.0   0.04
O      2  0.3725730000000 -0.3333330000000  0.3333330000000 1.0   0.13
O      2  0.4272310000000  0.3333330000000 -0.3333330000000 1.0   0.08
S      3 -0.1097960000000 -0.0010170000000 -0.3899610000000 1.0   0.14
S      3 -0.1097960000000  0.3899610000000  0.3889440000000 1.0   0.14
S      3 -0.1097960000000 -0.3889440000000  0.0010170000000 1.0   0.14
S      3 -0.6113170000000  0.0000000000000 -0.0000000000000 1.0   0.02
Fe     4  0.2542270000000  0.3664680000000  0.2565910000000 1.0   3.86
Fe     4  0.2542270000000 -0.2565910000000  0.1098770000000 1.0   3.86
Fe     4  0.2542270000000 -0.1098770000000 -0.3664680000000 1.0   3.86
Fe     4  0.0761000000000  0.3333330000000 -0.3333330000000 1.0   3.79
END
