TITL LFSO-Li6FeS3O-201027-195320-cc2bd0 0.0450 159.689624 -3.41001094E+003 3.99985 4.10331 11 (P4mm) n - 1
REM
REM Run started: Tue, 27 Oct 2020 20:43:29 +0000 in /scratch/scratch/uccabz1/launch_tmp/launcher_2020-10-27-19-53-18-271562
REM CASTEP 19.11| from code version Version unavailable
REM Functional Perdew Burke Ernzerhof Relativity Koelling-Harmon Dispersion off
REM Cut-off 340.0000 eV Grid scale 1.7500 Gmax 16.5316 1/A FBSC none
REM MP grid 3 3 3 Offset 0.000 0.000 0.000 No. kpts 6 Spacing 0.07
REM Total runtime: 3093.35 s
REM Overall efficiency: 90.7778 %
REM
REM
REM
REM compiler GCC version 4.9.2
REM options -cpp -iprefix /scratch/UCL/applications/gcc/4.9.2/bin/../lib/gcc/x86_64-unknown-linux-gnu/4.9.2/ -mtune=corei7 -march=x86-64 -g -O2
REM COMMAND_LINE
REM seed -613933051 -2012002362 484017106 219593717 -368408639 1631955082 1298379615 54476644 781236985 109587342 -1159877556 396291712
REM
REM S 3|1.8|5|6|7|30:31:32(qc=5)
REM O 2|1.5|12|13|15|20:21(qc=5)
REM Li 1|1.3|8|9|10|10U:20(qc=5)
REM Fe 3|2.2|2.0|1.0|8|9|10|40:41:32(qc=5)
REM Fe d:4.0 
REM
CELL 1.54180    6.01876    5.15092    5.15092   90.00000   90.00000   90.00000
LATT -1
SFAC Li O  S  Fe 
Li     1 -0.0168570000000 -0.2518380000000 -0.2518380000000 1.0  -0.01
Li     1 -0.0168570000000  0.2518380000000  0.2518380000000 1.0  -0.01
Li     1 -0.0168570000000  0.2518380000000 -0.2518380000000 1.0  -0.01
Li     1 -0.0168570000000 -0.2518380000000  0.2518380000000 1.0  -0.01
Li     1 -0.6718790000000  0.5000000000000  0.0000000000000 1.0  -0.04
Li     1 -0.6718790000000  0.0000000000000  0.5000000000000 1.0  -0.04
O      2  0.1839860000000 -0.5000000000000  0.5000000000000 1.0   0.01
S      3 -0.2789660000000  0.0000000000000 -0.5000000000000 1.0   0.06
S      3 -0.2789660000000 -0.5000000000000  0.0000000000000 1.0   0.06
S      3  0.2294940000000  0.0000000000000  0.0000000000000 1.0   0.00
Fe     4 -0.4447710000000  0.5000000000000 -0.5000000000000 1.0   3.97
END
