TITL LFSO-Li6FeSO3-201027-211921-224c2f -0.0298 140.780535 -3.67999923E+003 4.00000 4.15985 11 (P3) n - 1
REM
REM Run started: Tue, 27 Oct 2020 21:40:57 +0000 in /lustre/scratch/uccabz1/launch_tmp/launcher_2020-10-27-21-19-19-758896
REM CASTEP 20.1 from code version af48c487+ pr-geom-scf-spinfix Tue Jun 2 15:39:59 2020 +0100
REM Functional Perdew Burke Ernzerhof Relativity Koelling-Harmon Dispersion off
REM Cut-off 340.0000 eV Grid scale 1.7500 Gmax 16.5316 1/A FBSC none
REM MP grid 4 3 3 Offset 0.000 0.000 0.000 No. kpts 10 Spacing 0.07
REM Total runtime: 1382.13 s
REM Overall efficiency: 71.5 %
REM
REM
REM
REM compiler GCC version 4.9.2
REM options -cpp -iprefix /lustre/shared/ucl/apps/gcc/4.9.2/bin/../lib/gcc/x86_64-unknown-linux-gnu/4.9.2/ -mtune=corei7 -march=x86-64 -g -Og
REM COMMAND_LINE
REM seed 1050327774 95817106 2041988684 68764770 201288184 -630577395 1401921732 -685970646 -1981272767 1470139569 817535850 99884665
REM
REM S 3|1.8|5|6|7|30:31:32(qc=5)
REM O 2|1.5|12|13|15|20:21(qc=5)
REM Li 1|1.3|8|9|10|10U:20(qc=5)
REM Fe 3|2.2|2.0|1.0|8|9|10|40:41:32(qc=5)
REM Fe d:4.0 
REM
CELL 1.54180    3.79473    6.54509    6.54509  120.00000   90.00000   90.00000
LATT -1
SFAC Li O  S  Fe 
Li     1 -0.3201630000000  0.3610520000000  0.2258340000000 1.0   0.02
Li     1 -0.3201630000000 -0.2258340000000  0.1352170000000 1.0   0.02
Li     1 -0.3201630000000 -0.1352170000000 -0.3610520000000 1.0   0.02
Li     1  0.1878510000000 -0.3336070000000 -0.2777190000000 1.0  -0.05
Li     1  0.1878510000000  0.2777190000000 -0.0558890000000 1.0  -0.05
Li     1  0.1878510000000  0.0558890000000  0.3336070000000 1.0  -0.05
O      2 -0.2982550000000  0.2019100000000 -0.1298970000000 1.0   0.13
O      2 -0.2982550000000  0.1298970000000  0.3318070000000 1.0   0.13
O      2 -0.2982550000000 -0.3318070000000 -0.2019100000000 1.0   0.13
S      3  0.1970580000000 -0.3333330000000  0.3333330000000 1.0   0.00
Fe     4  0.7200900000000  0.3333330000000 -0.3333330000000 1.0   3.71
END
