TITL LFSO-Li2Fe2S2O-201021-234621-9bcab7 0.0589 124.377120 -3.16970020E+003 7.99885 8.05306 7 (Cm) n - 1
REM
REM Run started: Thu, 22 Oct 2020 00:45:56 +0100 in /lustre/scratch/uccabz1/launch_tmp/launcher_2020-10-21-22-46-19-394903
REM CASTEP 20.1 from code version af48c487+ pr-geom-scf-spinfix Tue Jun 2 15:39:59 2020 +0100
REM Functional Perdew Burke Ernzerhof Relativity Koelling-Harmon Dispersion off
REM Cut-off 340.0000 eV Grid scale 1.7500 Gmax 16.5316 1/A FBSC none
REM MP grid 5 3 3 Offset 0.000 0.000 0.000 No. kpts 16 Spacing 0.07
REM Total runtime: 3978.32 s
REM Overall efficiency: 93.4286 %
REM
REM
REM
REM compiler GCC version 4.9.2
REM options -cpp -iprefix /lustre/shared/ucl/apps/gcc/4.9.2/bin/../lib/gcc/x86_64-unknown-linux-gnu/4.9.2/ -mtune=corei7 -march=x86-64 -g -Og
REM COMMAND_LINE
REM seed -392766409 587492399 1558656832 -334430807 -1679717583 2137198936 -1926380062 -1832728276 351259264 1489980259 1457568866 -1881832634
REM
REM S 3|1.8|5|6|7|30:31:32(qc=5)
REM O 2|1.5|12|13|15|20:21(qc=5)
REM Li 1|1.3|8|9|10|10U:20(qc=5)
REM Fe 3|2.2|2.0|1.0|8|9|10|40:41:32(qc=5)
REM Fe d:4.0 
REM
CELL 1.54180    3.78995    6.59034    6.59034  112.49986  108.64423  108.64423
LATT -1
SFAC Li O  S  Fe 
Li     1 -0.5551000000000 -0.3107230000000  0.4584920000000 1.0  -0.04
Li     1 -0.5551000000000  0.4584920000000 -0.3107230000000 1.0  -0.04
O      2 -0.0870410000000 -0.2278750000000 -0.2278750000000 1.0   0.15
S      3 -0.3534860000000  0.1247330000000 -0.4618270000000 1.0   0.10
S      3 -0.3534860000000 -0.4618270000000  0.1247330000000 1.0   0.10
Fe     4  0.2476430000000 -0.2054020000000  0.0891410000000 1.0   3.86
Fe     4  0.2476430000000  0.0891410000000 -0.2054020000000 1.0   3.86
END
