TITL LFSO-Li4Fe3S4O-201029-172244-039240 0.4385 710.301240 -1.00728061E+004 20.0000 20.7601 24 (P21/m) n - 1
REM
REM Run started: Fri, 30 Oct 2020 03:06:18 +0000 in /lustre/scratch/uccabz1/launch_tmp/launcher_2020-10-29-17-22-43-152297
REM CASTEP 20.1 from code version af48c487+ pr-geom-scf-spinfix Tue Jun 2 15:39:59 2020 +0100
REM Functional Perdew Burke Ernzerhof Relativity Koelling-Harmon Dispersion off
REM Cut-off 340.0000 eV Grid scale 1.7500 Gmax 16.5316 1/A FBSC none
REM MP grid 2 4 2 Offset 0.000 0.000 0.000 No. kpts 4 Spacing 0.07
REM Total runtime: 37859.6 s
REM Overall efficiency: 76.25 %
REM
REM
REM
REM compiler GCC version 4.9.2
REM options -cpp -iprefix /lustre/shared/ucl/apps/gcc/4.9.2/bin/../lib/gcc/x86_64-unknown-linux-gnu/4.9.2/ -mtune=corei7 -march=x86-64 -g -Og
REM COMMAND_LINE
REM seed 759397508 -1113929132 -39240257 1937130455 959054376 221949715 1434969891 -1003566248 1345505819 428608292 1231690694 1879410849
REM
REM S 3|1.8|5|6|7|30:31:32(qc=5)
REM O 2|1.5|12|13|15|20:21(qc=5)
REM Li 1|1.3|8|9|10|10U:20(qc=5)
REM Fe 3|2.2|2.0|1.0|8|9|10|40:41:32(qc=5)
REM Fe d:4.0 
REM
CELL 1.54180   10.85116    5.51577   15.87999   48.35932   90.00000   90.00000
LATT -1
SFAC Li O  S  Fe 
Li     1  0.1250640000000 -0.3586830000000 -0.0417260000000 1.0  -0.02
Li     1 -0.3749360000000  0.3586830000000  0.0417260000000 1.0  -0.02
Li     1 -0.1250640000000  0.3586830000000  0.0417260000000 1.0  -0.02
Li     1  0.3749360000000 -0.3586830000000 -0.0417260000000 1.0  -0.02
Li     1  0.6191100000000  0.0451890000000  0.2649870000000 1.0  -0.03
Li     1  0.1191100000000 -0.0451890000000 -0.2649870000000 1.0  -0.03
Li     1 -0.6191100000000 -0.0451890000000 -0.2649870000000 1.0  -0.03
Li     1 -0.1191100000000  0.0451890000000  0.2649870000000 1.0  -0.03
O      2 -0.2500000000000  0.0414130000000  0.1512210000000 1.0   0.06
O      2  0.2500000000000 -0.0414130000000 -0.1512210000000 1.0   0.06
S      3  0.0141860000000  0.4743370000000  0.1295460000000 1.0   0.03
S      3 -0.4858140000000 -0.4743370000000 -0.1295460000000 1.0   0.03
S      3 -0.0141860000000 -0.4743370000000 -0.1295460000000 1.0   0.03
S      3  0.4858140000000  0.4743370000000  0.1295460000000 1.0   0.03
S      3  0.3487850000000 -0.1846530000000 -0.3774000000000 1.0   0.11
S      3 -0.1512150000000  0.1846530000000  0.3774000000000 1.0   0.11
S      3 -0.3487850000000  0.1846530000000  0.3774000000000 1.0   0.11
S      3  0.1512150000000 -0.1846530000000 -0.3774000000000 1.0   0.11
Fe     4 -0.6353350000000  0.3233940000000 -0.1951210000000 1.0   3.33
Fe     4 -0.1353350000000 -0.3233940000000  0.1951210000000 1.0   3.33
Fe     4  0.6353350000000 -0.3233940000000  0.1951210000000 1.0   3.33
Fe     4  0.1353350000000  0.3233940000000 -0.1951210000000 1.0   3.33
Fe     4 -0.0000000000000  0.0000000000000  0.0000000000000 1.0   3.12
Fe     4 -0.5000000000000  0.0000000000000  0.0000000000000 1.0   3.12
END
