TITL LFSO-Li4Fe3S3O2-201029-185552-746a7e 0.0426 276.456911 -5.17192469E+003 12.0000 12.1702 12 (P3) n - 1
REM
REM Run started: Thu, 29 Oct 2020 20:13:29 +0000 in /lustre/scratch/uccabz1/launch_tmp/launcher_2020-10-29-18-55-51-234633
REM CASTEP 20.1 from code version af48c487+ pr-geom-scf-spinfix Tue Jun 2 15:39:59 2020 +0100
REM Functional Perdew Burke Ernzerhof Relativity Koelling-Harmon Dispersion off
REM Cut-off 340.0000 eV Grid scale 1.7500 Gmax 16.5316 1/A FBSC none
REM MP grid 3 3 3 Offset 0.000 0.000 0.000 No. kpts 8 Spacing 0.07
REM Total runtime: 5038.3 s
REM Overall efficiency: 79.7778 %
REM
REM
REM
REM compiler GCC version 4.9.2
REM options -cpp -iprefix /lustre/shared/ucl/apps/gcc/4.9.2/bin/../lib/gcc/x86_64-unknown-linux-gnu/4.9.2/ -mtune=corei7 -march=x86-64 -g -Og
REM COMMAND_LINE
REM seed 1648697162 -1058809059 1080004156 -79431637 824144268 391944281 -1972768526 -1200729001 1737009949 14982536 -1122685352 286122645
REM
REM S 3|1.8|5|6|7|30:31:32(qc=5)
REM O 2|1.5|12|13|15|20:21(qc=5)
REM Li 1|1.3|8|9|10|10U:20(qc=5)
REM Fe 3|2.2|2.0|1.0|8|9|10|40:41:32(qc=5)
REM Fe d:4.0 
REM
CELL 1.54180    7.01002    7.01002    6.49619   90.00000   90.00000  120.00000
LATT -1
SFAC Li O  S  Fe 
Li     1  0.4242870000000  0.2477830000000  0.4574320000000 1.0  -0.02
Li     1 -0.2477830000000  0.1765040000000  0.4574320000000 1.0  -0.02
Li     1 -0.1765040000000 -0.4242870000000  0.4574320000000 1.0  -0.02
Li     1 -0.3333330000000  0.3333330000000 -0.1241380000000 1.0  -0.05
O      2  0.3333330000000 -0.3333330000000 -0.0734890000000 1.0   0.25
O      2 -0.3333330000000  0.3333330000000 -0.4004460000000 1.0   0.01
S      3  0.3434290000000  0.0743920000000  0.1200580000000 1.0   0.15
S      3 -0.0743920000000  0.2690380000000  0.1200580000000 1.0   0.15
S      3 -0.2690380000000 -0.3434290000000  0.1200580000000 1.0   0.15
Fe     4  0.3060090000000  0.3893980000000  0.0286940000000 1.0   3.81
Fe     4 -0.3893980000000 -0.0833890000000  0.0286940000000 1.0   3.81
Fe     4  0.0833890000000 -0.3060090000000  0.0286940000000 1.0   3.81
END
