TITL LFSO-LiFe3S4O-201028-184337-fe1e1e -0.2775 518.119486 -8.87291499E+003 22.0046 22.8193 18 (Amm2) n - 1
REM
REM Run started: Fri, 30 Oct 2020 09:37:24 +0000 in /lustre/scratch/uccabz1/launch_tmp/launcher_2020-10-28-18-43-35-574718
REM CASTEP 20.1 from code version af48c487+ pr-geom-scf-spinfix Tue Jun 2 15:39:59 2020 +0100
REM Functional Perdew Burke Ernzerhof Relativity Koelling-Harmon Dispersion off
REM Cut-off 340.0000 eV Grid scale 1.7500 Gmax 16.5316 1/A FBSC none
REM MP grid 2 4 4 Offset 0.000 0.000 0.000 No. kpts 6 Spacing 0.07
REM Total runtime: 157654 s
REM Overall efficiency: 88.5 %
REM
REM
REM
REM compiler GCC version 4.9.2
REM options -cpp -iprefix /lustre/shared/ucl/apps/gcc/4.9.2/bin/../lib/gcc/x86_64-unknown-linux-gnu/4.9.2/ -mtune=corei7 -march=x86-64 -g -Og
REM COMMAND_LINE
REM seed -2035010282 -188053175 -1635823942 1409663664 1083606037 922954690 1348843435 -1493718694 -2004322395 1726717575 189983802 -307651785
REM
REM S 3|1.8|5|6|7|30:31:32(qc=5)
REM O 2|1.5|12|13|15|20:21(qc=5)
REM Li 1|1.3|8|9|10|10U:20(qc=5)
REM Fe 3|2.2|2.0|1.0|8|9|10|40:41:32(qc=5)
REM Fe d:4.0 
REM
CELL 1.54180   10.58495   12.95330   12.95330  163.03847   90.00000   90.00000
LATT -1
SFAC Li O  S  Fe 
Li     1  0.0000000000000  0.0323880000000  0.4148560000000 1.0   0.00
Li     1 -0.0000000000000  0.4148560000000  0.0323880000000 1.0   0.00
O      2 -0.5000000000000  0.6039660000000  0.3462300000000 1.0   0.24
O      2  0.5000000000000  0.3462300000000  0.6039660000000 1.0   0.24
S      3  0.1912730000000  0.0601370000000 -0.1511550000000 1.0   0.01
S      3 -0.1912730000000 -0.1511550000000  0.0601370000000 1.0   0.01
S      3  0.1912730000000 -0.1511550000000  0.0601370000000 1.0   0.01
S      3 -0.1912730000000  0.0601370000000 -0.1511550000000 1.0   0.01
S      3  0.1747720000000 -0.0673380000000 -0.4362940000000 1.0   0.04
S      3 -0.1747720000000 -0.4362940000000 -0.0673380000000 1.0   0.04
S      3  0.1747720000000 -0.4362940000000 -0.0673380000000 1.0   0.04
S      3 -0.1747720000000 -0.0673380000000 -0.4362940000000 1.0   0.04
Fe     4 -0.3315920000000  0.2723330000000 -0.4556310000000 1.0   3.73
Fe     4  0.3315920000000 -0.4556310000000  0.2723330000000 1.0   3.73
Fe     4 -0.3315920000000 -0.4556310000000  0.2723330000000 1.0   3.73
Fe     4  0.3315920000000  0.2723330000000 -0.4556310000000 1.0   3.73
Fe     4  0.0000000000000 -0.1097780000000  0.0105310000000 1.0   3.21
Fe     4  0.0000000000000  0.0105310000000 -0.1097780000000 1.0   3.21
END
