TITL LFSO-LiFe3S4O-201028-132658-ce0942 0.0395 411.428460 -8.87402438E+003 -0.229022E-01 22.8628 18 (P3) n - 1
REM
REM Run started: Thu, 29 Oct 2020 03:17:02 +0000 in /scratch/scratch/uccabz1/launch_tmp/launcher_2020-10-28-13-26-56-385328
REM CASTEP 19.11| from code version Version unavailable
REM Functional Perdew Burke Ernzerhof Relativity Koelling-Harmon Dispersion off
REM Cut-off 340.0000 eV Grid scale 1.7500 Gmax 16.5316 1/A FBSC none
REM MP grid 3 3 2 Offset 0.000 0.000 0.000 No. kpts 5 Spacing 0.07
REM Total runtime: 50258.2 s
REM Overall efficiency: 75 %
REM
REM
REM
REM compiler GCC version 4.9.2
REM options -cpp -iprefix /scratch/UCL/applications/gcc/4.9.2/bin/../lib/gcc/x86_64-unknown-linux-gnu/4.9.2/ -mtune=corei7 -march=x86-64 -g -O2
REM COMMAND_LINE
REM seed 1869555176 235376739 746885547 1270357657 2129987822 2095069042 426948549 -1766246762 -1379527678 -246469414 1214363432 -466490423
REM
REM S 3|1.8|5|6|7|30:31:32(qc=5)
REM O 2|1.5|12|13|15|20:21(qc=5)
REM Li 1|1.3|8|9|10|10U:20(qc=5)
REM Fe 3|2.2|2.0|1.0|8|9|10|40:41:32(qc=5)
REM Fe d:4.0 
REM
CELL 1.54180    6.31755    6.31755   11.90328   90.00000   90.00000  120.00000
LATT -1
SFAC Li O  S  Fe 
Li     1 -0.0000000000000  0.0000000000000 -0.1833000000000 1.0   0.00
Li     1  0.3333330000000 -0.3333330000000  0.2438210000000 1.0  -0.04
O      2 -0.0000000000000  0.0000000000000  0.1899740000000 1.0  -0.07
O      2 -0.3333330000000  0.3333330000000  0.1909740000000 1.0  -0.04
S      3  0.3602430000000  0.0369950000000 -0.3098440000000 1.0   0.23
S      3 -0.0369950000000  0.3232480000000 -0.3098440000000 1.0   0.23
S      3 -0.3232480000000 -0.3602430000000 -0.3098440000000 1.0   0.23
S      3  0.3289450000000  0.4089690000000  0.0604120000000 1.0  -0.44
S      3 -0.4089690000000 -0.0800240000000  0.0604120000000 1.0  -0.44
S      3  0.0800240000000 -0.3289450000000  0.0604120000000 1.0  -0.44
S      3  0.3333330000000 -0.3333330000000  0.4718460000000 1.0   0.15
S      3 -0.0000000000000  0.0000000000000  0.4889760000000 1.0   0.55
Fe     4  0.0264110000000 -0.3127070000000 -0.4081000000000 1.0  -3.47
Fe     4  0.3127070000000  0.3391180000000 -0.4081000000000 1.0  -3.47
Fe     4 -0.3391180000000 -0.0264110000000 -0.4081000000000 1.0  -3.47
Fe     4 -0.0747740000000  0.2596590000000  0.1413760000000 1.0   3.48
Fe     4 -0.2596590000000 -0.3344340000000  0.1413760000000 1.0   3.48
Fe     4  0.3344340000000  0.0747740000000  0.1413760000000 1.0   3.48
END
