TITL LFSO-Li4Fe3S3O2-201029-045210-f54f05 -0.0595 560.687211 -1.03426641E+004 22.0000 22.6408 24 (C2) n - 1
REM
REM Run started: Thu, 29 Oct 2020 14:27:49 +0000 in /lustre/scratch/uccabz1/launch_tmp/launcher_2020-10-29-10-49-08-473415
REM CASTEP 20.1 from code version af48c487+ pr-geom-scf-spinfix Tue Jun 2 15:39:59 2020 +0100
REM Functional Perdew Burke Ernzerhof Relativity Koelling-Harmon Dispersion off
REM Cut-off 340.0000 eV Grid scale 1.7500 Gmax 16.5316 1/A FBSC none
REM MP grid 3 2 2 Offset 0.000 0.000 0.000 No. kpts 6 Spacing 0.07
REM Total runtime: 33913.2 s
REM Overall efficiency: 72.6364 %
REM
REM
REM
REM compiler GCC version 4.9.2
REM options -cpp -iprefix /scratch/UCL/applications/gcc/4.9.2/bin/../lib/gcc/x86_64-unknown-linux-gnu/4.9.2/ -mtune=corei7 -march=x86-64 -g -O2
REM COMMAND_LINE
REM seed -767105686 419257123 -649748429 -1614061259 505898954 812712105 -317686368 -1107026846 1612205115 -1050283573 2032616714 -693274864
REM
REM S 3|1.8|5|6|7|30:31:32(qc=5)
REM O 2|1.5|12|13|15|20:21(qc=5)
REM Li 1|1.3|8|9|10|10U:20(qc=5)
REM Fe 3|2.2|2.0|1.0|8|9|10|40:41:32(qc=5)
REM Fe d:4.0 
REM
CELL 1.54180    6.31581   11.09552   10.09775  123.32626  105.37863   90.00000
LATT -1
SFAC Li O  S  Fe 
Li     1 -0.0019680000000 -0.1627130000000 -0.3263800000000 1.0  -0.00
Li     1  0.0019680000000  0.1636670000000  0.3263800000000 1.0  -0.00
Li     1 -0.2428930000000 -0.6321920000000 -0.0317740000000 1.0  -0.01
Li     1  0.2428930000000 -0.6004180000000  0.0317740000000 1.0  -0.01
Li     1  0.6348590000000  0.2439230000000  0.1674170000000 1.0  -0.01
Li     1 -0.6348590000000  0.0765060000000 -0.1674170000000 1.0  -0.01
Li     1  0.1938260000000 -0.0114950000000  0.5069910000000 1.0  -0.05
Li     1 -0.1938260000000  0.4815140000000 -0.5069910000000 1.0  -0.05
O      2  0.2041360000000 -0.0896490000000 -0.3759030000000 1.0   0.16
O      2 -0.2041360000000  0.2862540000000  0.3759030000000 1.0   0.16
O      2 -0.3983150000000  0.2299810000000 -0.0310360000000 1.0   0.01
O      2  0.3983150000000  0.2610170000000  0.0310360000000 1.0   0.01
S      3  0.0562310000000 -0.4323390000000  0.2236320000000 1.0   0.07
S      3 -0.0562310000000  0.3440290000000 -0.2236320000000 1.0   0.07
S      3 -0.3527920000000 -0.3089270000000  0.5989320000000 1.0   0.07
S      3  0.3527920000000  0.0921420000000 -0.5989320000000 1.0   0.07
S      3  0.2274000000000 -0.2439210000000 -0.1435600000000 1.0   0.10
S      3 -0.2274000000000 -0.1003610000000  0.1435600000000 1.0   0.10
Fe     4  0.0563470000000 -0.4246600000000 -0.1447750000000 1.0   3.32
Fe     4 -0.0563470000000 -0.2798850000000  0.1447750000000 1.0   3.32
Fe     4  0.3072670000000 -0.2633510000000 -0.5081340000000 1.0   3.76
Fe     4 -0.3072670000000  0.2447830000000  0.5081340000000 1.0   3.76
Fe     4 -0.3929590000000 -0.2497530000000 -0.1511260000000 1.0   3.59
Fe     4  0.3929590000000 -0.0986270000000  0.1511260000000 1.0   3.59
END
