TITL LFSO-Li2Fe4S4O-201023-072950-ecf95f 0.1507 310.589690 -5.49728632E+003 11.9966 14.6905 11 (P2/m) n - 1
REM
REM Run started: Fri, 23 Oct 2020 13:10:40 +0100 in /lustre/scratch/uccabz1/launch_tmp/launcher_2020-10-23-06-29-49-374927
REM CASTEP 20.1 from code version af48c487+ pr-geom-scf-spinfix Tue Jun 2 15:39:59 2020 +0100
REM Functional Perdew Burke Ernzerhof Relativity Koelling-Harmon Dispersion off
REM Cut-off 340.0000 eV Grid scale 1.7500 Gmax 16.5316 1/A FBSC none
REM MP grid 5 3 2 Offset 0.000 0.000 0.000 No. kpts 8 Spacing 0.07
REM Total runtime: 21773.5 s
REM Overall efficiency: 76 %
REM
REM
REM
REM compiler GCC version 4.9.2
REM options -cpp -iprefix /lustre/shared/ucl/apps/gcc/4.9.2/bin/../lib/gcc/x86_64-unknown-linux-gnu/4.9.2/ -mtune=corei7 -march=x86-64 -g -Og
REM COMMAND_LINE
REM seed -1313359769 1641627176 132609179 2122962893 1283707077 340069574 183107762 142187564 562462514 -76627238 -468710201 -277588556
REM
REM S 3|1.8|5|6|7|30:31:32(qc=5)
REM O 2|1.5|12|13|15|20:21(qc=5)
REM Li 1|1.3|8|9|10|10U:20(qc=5)
REM Fe 3|2.2|2.0|1.0|8|9|10|40:41:32(qc=5)
REM Fe d:4.0 
REM
CELL 1.54180    4.33376    7.86686   11.99344   90.00000   90.00000  130.57231
LATT -1
SFAC Li O  S  Fe 
Li     1  0.0000000000000  0.5000000000000 -0.3480050000000 1.0   0.02
Li     1  0.0000000000000 -0.5000000000000  0.3480050000000 1.0   0.02
O      2  0.0000000000000  0.5000000000000 -0.5000000000000 1.0  -0.98
S      3 -0.5368400000000 -0.2598200000000  0.1716380000000 1.0  -0.06
S      3  0.5368400000000  0.2598200000000  0.1716380000000 1.0  -0.06
S      3  0.5368400000000  0.2598200000000 -0.1716380000000 1.0  -0.06
S      3 -0.5368400000000 -0.2598200000000 -0.1716380000000 1.0  -0.06
Fe     4  0.1095600000000 -0.1368140000000  0.1423320000000 1.0   3.29
Fe     4 -0.1095600000000  0.1368140000000  0.1423320000000 1.0   3.29
Fe     4 -0.1095600000000  0.1368140000000 -0.1423320000000 1.0   3.29
Fe     4  0.1095600000000 -0.1368140000000 -0.1423320000000 1.0   3.29
END
