TITL LFSO-Li2Fe3S3O-201025-073949-5b50df 0.0348 496.746679 -8.66995026E+003 -24.0000 24.3392 18 (Pc) n - 1
REM
REM Run started: Sun, 25 Oct 2020 14:23:07 +0000 in /lustre/scratch/uccabz1/launch_tmp/launcher_2020-10-25-07-39-47-645816
REM CASTEP 20.1 from code version af48c487+ pr-geom-scf-spinfix Tue Jun 2 15:39:59 2020 +0100
REM Functional Perdew Burke Ernzerhof Relativity Koelling-Harmon Dispersion off
REM Cut-off 340.0000 eV Grid scale 1.7500 Gmax 16.5316 1/A FBSC none
REM MP grid 3 2 2 Offset 0.000 0.000 0.000 No. kpts 3 Spacing 0.07
REM Total runtime: 24838.3 s
REM Overall efficiency: 74.3846 %
REM
REM
REM
REM compiler GCC version 4.9.2
REM options -cpp -iprefix /lustre/shared/ucl/apps/gcc/4.9.2/bin/../lib/gcc/x86_64-unknown-linux-gnu/4.9.2/ -mtune=corei7 -march=x86-64 -g -Og
REM COMMAND_LINE
REM seed 1440151051 -1945715565 1365680226 577536182 -56684950 -675479359 -36335808 -225071598 -1690763888 -703497776 -947071613 -1881582863
REM
REM S 3|1.8|5|6|7|30:31:32(qc=5)
REM O 2|1.5|12|13|15|20:21(qc=5)
REM Li 1|1.3|8|9|10|10U:20(qc=5)
REM Fe 3|2.2|2.0|1.0|8|9|10|40:41:32(qc=5)
REM Fe d:4.0 
REM
CELL 1.54180    7.18118   11.50055    8.72185   90.00000   90.00000  136.39964
LATT -1
SFAC Li O  S  Fe 
Li     1  0.4611450000000  0.1220650000000  0.0725220000000 1.0   0.04
Li     1 -0.0388550000000 -0.3779350000000 -0.0725220000000 1.0   0.04
Li     1  0.1410920000000  0.4038080000000  0.0068160000000 1.0   0.05
Li     1  0.6410920000000 -0.0961920000000 -0.0068160000000 1.0   0.05
O      2 -0.2955080000000 -0.1422270000000 -0.2008040000000 1.0  -0.23
O      2  0.2044920000000  0.3577730000000  0.2008040000000 1.0  -0.23
S      3 -0.1586700000000 -0.5802760000000  0.1185570000000 1.0  -0.04
S      3  0.3413300000000 -0.0802760000000 -0.1185570000000 1.0  -0.04
S      3  0.3626510000000 -0.3118940000000  0.4931110000000 1.0  -0.12
S      3 -0.1373490000000  0.1881060000000 -0.4931110000000 1.0  -0.12
S      3 -0.4883780000000  0.4808720000000 -0.1447300000000 1.0  -0.16
S      3  0.0116220000000 -0.0191280000000  0.1447300000000 1.0  -0.16
Fe     4  0.5570870000000 -0.0665540000000 -0.3538920000000 1.0  -3.92
Fe     4  0.0570870000000  0.4334460000000  0.3538920000000 1.0  -3.92
Fe     4 -0.0043810000000  0.1365280000000  0.2986650000000 1.0  -3.82
Fe     4  0.4956190000000  0.6365280000000 -0.2986650000000 1.0  -3.82
Fe     4  0.5015310000000  0.4081090000000  0.1138900000000 1.0  -3.80
Fe     4  0.0015310000000 -0.0918910000000 -0.1138900000000 1.0  -3.80
END
