TITL LFSO-Li2Fe3S2O2-201022-162507-390f1c 0.3654 301.898403 -8.93812932E+003 24.0000 24.3180 18 (R3) n - 1
REM
REM Run started: Fri, 23 Oct 2020 00:38:46 +0100 in /lustre/scratch/uccabz1/launch_tmp/launcher_2020-10-22-23-30-25-852522
REM CASTEP 20.1 from code version af48c487+ pr-geom-scf-spinfix Tue Jun 2 15:39:59 2020 +0100
REM Functional Perdew Burke Ernzerhof Relativity Koelling-Harmon Dispersion off
REM Cut-off 340.0000 eV Grid scale 1.7500 Gmax 16.5316 1/A FBSC none
REM MP grid 3 3 2 Offset 0.000 0.000 0.000 No. kpts 7 Spacing 0.07
REM Total runtime: 29109 s
REM Overall efficiency: 92.5833 %
REM
REM
REM
REM compiler GCC version 4.9.2
REM options -cpp -iprefix /lustre/shared/ucl/apps/gcc/4.9.2/bin/../lib/gcc/x86_64-unknown-linux-gnu/4.9.2/ -mtune=corei7 -march=x86-64 -g -Og
REM COMMAND_LINE
REM seed 373773446 -1875998409 1035801897 2054759933 1575248843 206839223 917168704 33977178 -136749025 1779337609 -1255086159 279122418
REM
REM S 3|1.8|5|6|7|30:31:32(qc=5)
REM O 2|1.5|12|13|15|20:21(qc=5)
REM Li 1|1.3|8|9|10|10U:20(qc=5)
REM Fe 3|2.2|2.0|1.0|8|9|10|40:41:32(qc=5)
REM Fe d:4.0 
REM
CELL 1.54180    6.84408    6.84408    8.42614   66.03855   66.03855   60.00000
LATT -1
SFAC Li O  S  Fe 
Li     1 -0.1150900000000 -0.0446720000000 -0.3474870000000 1.0  -0.03
Li     1 -0.0446720000000 -0.4927500000000 -0.3474870000000 1.0  -0.03
Li     1 -0.4927500000000 -0.1150900000000 -0.3474870000000 1.0  -0.03
Li     1  0.4688070000000  0.4688070000000 -0.4064210000000 1.0  -0.07
O      2  0.1036480000000  0.5709920000000 -0.2396430000000 1.0   0.22
O      2  0.5709920000000 -0.4349970000000 -0.2396430000000 1.0   0.22
O      2 -0.4349970000000  0.1036480000000 -0.2396430000000 1.0   0.22
O      2  0.3010480000000  0.3010480000000  0.0968570000000 1.0   0.20
S      3 -0.1569150000000  0.2215640000000  0.3326900000000 1.0   0.16
S      3  0.2215640000000 -0.3973390000000  0.3326900000000 1.0   0.16
S      3 -0.3973390000000 -0.1569150000000  0.3326900000000 1.0   0.16
S      3  0.0706610000000  0.0706610000000  0.7880180000000 1.0   0.09
Fe     4  0.2164020000000 -0.3448070000000 -0.1129550000000 1.0   3.78
Fe     4 -0.3448070000000 -0.7586390000000 -0.1129550000000 1.0   3.78
Fe     4 -0.7586390000000  0.2164020000000 -0.1129550000000 1.0   3.78
Fe     4  0.2563230000000 -0.0285030000000  0.2441770000000 1.0   3.80
Fe     4 -0.0285030000000  0.5280020000000  0.2441770000000 1.0   3.80
Fe     4  0.5280020000000  0.2563230000000  0.2441770000000 1.0   3.80
END
