TITL LFSO-Li5FeSO3-201026-195335-8b3345 0.0205 128.965375 -3.47994843E+003 5.00000 5.04120 10 (Cm) n - 1
REM
REM Run started: Mon, 26 Oct 2020 20:35:05 +0000 in /lustre/scratch/uccabz1/launch_tmp/launcher_2020-10-26-19-53-33-450713
REM CASTEP 20.1 from code version af48c487+ pr-geom-scf-spinfix Tue Jun 2 15:39:59 2020 +0100
REM Functional Perdew Burke Ernzerhof Relativity Koelling-Harmon Dispersion off
REM Cut-off 340.0000 eV Grid scale 1.7500 Gmax 16.5316 1/A FBSC none
REM MP grid 4 3 4 Offset 0.000 0.000 0.000 No. kpts 24 Spacing 0.07
REM Total runtime: 2769.97 s
REM Overall efficiency: 77 %
REM
REM
REM
REM compiler GCC version 4.9.2
REM options -cpp -iprefix /lustre/shared/ucl/apps/gcc/4.9.2/bin/../lib/gcc/x86_64-unknown-linux-gnu/4.9.2/ -mtune=corei7 -march=x86-64 -g -Og
REM COMMAND_LINE
REM seed -992653232 141197855 213235857 -1286716351 198939949 -1216662456 -1050576972 471692011 129147657 1816793040 1004134954 -1761986111
REM
REM S 3|1.8|5|6|7|30:31:32(qc=5)
REM O 2|1.5|12|13|15|20:21(qc=5)
REM Li 1|1.3|8|9|10|10U:20(qc=5)
REM Fe 3|2.2|2.0|1.0|8|9|10|40:41:32(qc=5)
REM Fe d:4.0 
REM
CELL 1.54180    6.16894    6.16894    5.14370  105.21958  122.99516  109.08957
LATT -1
SFAC Li O  S  Fe 
Li     1 -0.1498700000000 -0.1356380000000  0.2276120000000 1.0  -0.07
Li     1  0.3632500000000  0.3774820000000  0.2276120000000 1.0  -0.07
Li     1  0.0082670000000  0.5425840000000 -0.0710600000000 1.0   0.01
Li     1  0.3863560000000 -0.0793270000000 -0.0710600000000 1.0   0.01
Li     1  0.3651140000000  0.3916700000000  0.7567840000000 1.0   0.09
O      2  0.1493230000000  0.0592030000000 -0.2362060000000 1.0   0.28
O      2 -0.2954080000000 -0.3855290000000 -0.2362060000000 1.0   0.28
O      2 -0.5599060000000 -0.3034810000000  0.1366140000000 1.0   0.23
S      3 -0.1184310000000  0.2485090000000  0.1300780000000 1.0   0.21
Fe     4 -0.2262180000000 -0.1025310000000 -0.3287500000000 1.0   4.04
END
