TITL LFSO-Li2FeSO-201024-162138-1f9b95 -0.0235 156.870344 -4.00615854E+003 8.00000 8.12633 10 (Cmm2) n - 1
REM
REM Run started: Sat, 24 Oct 2020 17:25:13 +0100 in /lustre/scratch/uccabz1/launch_tmp/launcher_2020-10-24-15-21-36-903452
REM CASTEP 20.1 from code version af48c487+ pr-geom-scf-spinfix Tue Jun 2 15:39:59 2020 +0100
REM Functional Perdew Burke Ernzerhof Relativity Koelling-Harmon Dispersion off
REM Cut-off 340.0000 eV Grid scale 1.7500 Gmax 16.5316 1/A FBSC none
REM MP grid 3 4 3 Offset 0.000 0.000 0.000 No. kpts 12 Spacing 0.07
REM Total runtime: 4208.7 s
REM Overall efficiency: 77.7273 %
REM
REM
REM
REM compiler GCC version 4.9.2
REM options -cpp -iprefix /lustre/shared/ucl/apps/gcc/4.9.2/bin/../lib/gcc/x86_64-unknown-linux-gnu/4.9.2/ -mtune=corei7 -march=x86-64 -g -Og
REM COMMAND_LINE
REM seed -1666516878 1856019586 782387966 1410513585 1581211632 164698595 -1388355277 354873625 1901051366 -116976728 -2121702462 -1526327530
REM
REM S 3|1.8|5|6|7|30:31:32(qc=5)
REM O 2|1.5|12|13|15|20:21(qc=5)
REM Li 1|1.3|8|9|10|10U:20(qc=5)
REM Fe 3|2.2|2.0|1.0|8|9|10|40:41:32(qc=5)
REM Fe d:4.0 
REM
CELL 1.54180    7.58137    3.78762    6.91372  105.89770  123.24940   90.00000
LATT -1
SFAC Li O  S  Fe 
Li     1 -0.3833920000000  0.4713180000000  0.4426370000000 1.0  -0.03
Li     1 -0.1739710000000 -0.0286820000000  0.4426370000000 1.0  -0.03
Li     1  0.1166080000000 -0.0286820000000  0.4426370000000 1.0  -0.03
Li     1  0.3260290000000  0.4713180000000  0.4426370000000 1.0  -0.03
O      2 -0.3830790000000 -0.3830790000000 -0.2661580000000 1.0   0.12
O      2  0.1169210000000  0.1169210000000 -0.2661580000000 1.0   0.12
S      3 -0.1083660000000 -0.6083660000000  0.2832690000000 1.0   0.08
S      3  0.3916340000000 -0.1083660000000  0.2832690000000 1.0   0.08
Fe     4 -0.3277670000000  0.1722330000000 -0.1555340000000 1.0   3.85
Fe     4  0.1722330000000  0.6722330000000 -0.1555340000000 1.0   3.85
END
