TITL LFSO-LiFe3S4O-201028-092927-a77f49 0.0186 317.076504 -8.87585362E+003 21.9271 23.5261 18 (P21212) n - 1
REM
REM Run started: Wed, 28 Oct 2020 13:34:51 +0000 in /lustre/scratch/uccabz1/launch_tmp/launcher_2020-10-28-09-29-25-124787
REM CASTEP 20.1 from code version af48c487+ pr-geom-scf-spinfix Tue Jun 2 15:39:59 2020 +0100
REM Functional Perdew Burke Ernzerhof Relativity Koelling-Harmon Dispersion off
REM Cut-off 340.0000 eV Grid scale 1.7500 Gmax 16.5316 1/A FBSC none
REM MP grid 3 4 2 Offset 0.000 0.000 0.000 No. kpts 4 Spacing 0.07
REM Total runtime: 15058.5 s
REM Overall efficiency: 82.5 %
REM
REM
REM
REM compiler GCC version 4.9.2
REM options -cpp -iprefix /lustre/shared/ucl/apps/gcc/4.9.2/bin/../lib/gcc/x86_64-unknown-linux-gnu/4.9.2/ -mtune=corei7 -march=x86-64 -g -Og
REM COMMAND_LINE
REM seed -1227812842 2111938740 -1637614291 -851533936 1972809918 -1911187015 1486221251 1591377504 913082691 -1344425575 770640433 -1284616728
REM
REM S 3|1.8|5|6|7|30:31:32(qc=5)
REM O 2|1.5|12|13|15|20:21(qc=5)
REM Li 1|1.3|8|9|10|10U:20(qc=5)
REM Fe 3|2.2|2.0|1.0|8|9|10|40:41:32(qc=5)
REM Fe d:4.0 
REM
CELL 1.54180    5.64105    3.93630   14.27958   90.00000   90.00000   90.00000
LATT -1
SFAC Li O  S  Fe 
Li     1  0.2172770000000 -0.5000000000000  0.0000000000000 1.0  -0.04
Li     1 -0.2172770000000 -0.0000000000000 -0.5000000000000 1.0  -0.04
O      2 -0.3614990000000 -0.0000000000000  0.0000000000000 1.0   0.24
O      2  0.3614990000000 -0.5000000000000 -0.5000000000000 1.0   0.24
S      3  0.0787090000000  0.0101880000000 -0.3510560000000 1.0  -0.05
S      3  0.0787090000000 -0.0101880000000  0.3510560000000 1.0  -0.05
S      3 -0.0787090000000  0.5101880000000 -0.1489440000000 1.0  -0.05
S      3 -0.0787090000000 -0.5101880000000  0.1489440000000 1.0  -0.05
S      3 -0.3492760000000 -0.0145710000000  0.3377750000000 1.0  -0.06
S      3 -0.3492760000000  0.0145710000000 -0.3377750000000 1.0  -0.06
S      3  0.3492760000000  0.4854290000000  0.1622250000000 1.0  -0.06
S      3  0.3492760000000 -0.4854290000000 -0.1622250000000 1.0  -0.06
Fe     4  0.6199690000000  0.0177220000000 -0.1498110000000 1.0   3.66
Fe     4  0.6199690000000 -0.0177220000000  0.1498110000000 1.0   3.66
Fe     4 -0.6199690000000 -0.4822780000000 -0.3501890000000 1.0   3.66
Fe     4 -0.6199690000000  0.4822780000000  0.3501890000000 1.0   3.66
Fe     4 -0.2519250000000 -0.5000000000000  0.0000000000000 1.0   3.66
Fe     4  0.2519250000000 -0.0000000000000 -0.5000000000000 1.0   3.66
END
