TITL LFSO-Li2Fe3S2O2-201024-061148-0286e9 0.0053 346.081540 -8.93758695E+003 24.0000 24.2325 18 (P3) n - 1
REM
REM Run started: Sat, 24 Oct 2020 10:42:32 +0100 in /scratch/scratch/uccabz1/launch_tmp/launcher_2020-10-24-05-11-47-073232
REM CASTEP 19.11| from code version Version unavailable
REM Functional Perdew Burke Ernzerhof Relativity Koelling-Harmon Dispersion off
REM Cut-off 340.0000 eV Grid scale 1.7500 Gmax 16.5316 1/A FBSC none
REM MP grid 3 3 3 Offset 0.000 0.000 0.000 No. kpts 8 Spacing 0.07
REM Total runtime: 19367.7 s
REM Overall efficiency: 76.625 %
REM
REM
REM
REM compiler GCC version 4.9.2
REM options -cpp -iprefix /scratch/UCL/applications/gcc/4.9.2/bin/../lib/gcc/x86_64-unknown-linux-gnu/4.9.2/ -mtune=corei7 -march=x86-64 -g -O2
REM COMMAND_LINE
REM seed -2093468476 -1417724834 1564928946 -457202487 466076822 -1361675763 1814916844 1554339906 -683258249 1897441360 871995948 2113824079
REM
REM S 3|1.8|5|6|7|30:31:32(qc=5)
REM O 2|1.5|12|13|15|20:21(qc=5)
REM Li 1|1.3|8|9|10|10U:20(qc=5)
REM Fe 3|2.2|2.0|1.0|8|9|10|40:41:32(qc=5)
REM Fe d:4.0 
REM
CELL 1.54180    8.18261    8.18261    5.96848   90.00000   90.00000  120.00000
LATT -1
SFAC Li O  S  Fe 
Li     1 -0.2616430000000  0.0267130000000 -0.5494600000000 1.0  -0.02
Li     1 -0.0267130000000 -0.2883550000000 -0.5494600000000 1.0  -0.02
Li     1  0.2883550000000  0.2616430000000 -0.5494600000000 1.0  -0.02
Li     1 -0.3333330000000  0.3333330000000  0.3863250000000 1.0  -0.02
O      2 -0.2349270000000 -0.4027640000000  0.2466460000000 1.0   0.18
O      2  0.4027640000000  0.1678370000000  0.2466460000000 1.0   0.18
O      2 -0.1678370000000  0.2349270000000  0.2466460000000 1.0   0.18
O      2 -0.3333330000000  0.3333330000000 -0.2061070000000 1.0   0.18
S      3 -0.3211310000000 -0.1318270000000 -0.1958720000000 1.0   0.16
S      3  0.1318270000000 -0.1893030000000 -0.1958720000000 1.0   0.16
S      3  0.1893030000000  0.3211310000000 -0.1958720000000 1.0   0.16
S      3  0.3333330000000 -0.3333330000000  0.3269630000000 1.0   0.09
Fe     4 -0.2774530000000  0.1467260000000 -0.0542350000000 1.0   3.80
Fe     4 -0.1467260000000  0.5758210000000 -0.0542350000000 1.0   3.80
Fe     4 -0.5758210000000  0.2774530000000 -0.0542350000000 1.0   3.80
Fe     4 -0.4048540000000 -0.3158900000000  0.1316390000000 1.0   3.79
Fe     4  0.3158900000000 -0.0889630000000  0.1316390000000 1.0   3.79
Fe     4  0.0889630000000  0.4048540000000  0.1316390000000 1.0   3.79
END
