TITL LFSO-Li2Fe2S2O-201022-031330-a780ac 0.3105 416.180788 -9.50365879E+003 23.3476 23.7548 21 (F222) n - 1
REM
REM Run started: Thu, 22 Oct 2020 22:01:31 +0100 in /lustre/scratch/uccabz1/launch_tmp/launcher_2020-10-22-19-28-36-447185
REM CASTEP 20.1 from code version af48c487+ pr-geom-scf-spinfix Tue Jun 2 15:39:59 2020 +0100
REM Functional Perdew Burke Ernzerhof Relativity Koelling-Harmon Dispersion off
REM Cut-off 340.0000 eV Grid scale 1.7500 Gmax 16.5316 1/A FBSC none
REM MP grid 3 3 4 Offset 0.000 0.000 0.000 No. kpts 12 Spacing 0.07
REM Total runtime: 66788.6 s
REM Overall efficiency: 98.5455 %
REM
REM
REM
REM compiler GCC version 4.9.2
REM options -cpp -iprefix /lustre/shared/ucl/apps/gcc/4.9.2/bin/../lib/gcc/x86_64-unknown-linux-gnu/4.9.2/ -mtune=corei7 -march=x86-64 -g -Og
REM COMMAND_LINE
REM seed 216671524 2012840724 -776654797 -531911277 -536357705 445146123 -490927997 1653761377 -278825347 -830172851 -1929937088 176741256
REM
REM S 3|1.8|5|6|7|30:31:32(qc=5)
REM O 2|1.5|12|13|15|20:21(qc=5)
REM Li 1|1.3|8|9|10|10U:20(qc=5)
REM Fe 3|2.2|2.0|1.0|8|9|10|40:41:32(qc=5)
REM Fe d:4.0 
REM
CELL 1.54180   10.23604   10.23604   10.14918  140.97917  140.97917   57.27220
LATT -1
SFAC Li O  S  Fe 
Li     1  0.2189040000000  0.2227650000000  0.2585110000000 1.0  -0.05
Li     1 -0.0357460000000 -0.0396070000000 -0.2585110000000 1.0  -0.05
Li     1  0.0396070000000  0.0357460000000  0.2585110000000 1.0  -0.05
Li     1 -0.2227650000000 -0.2189040000000 -0.2585110000000 1.0  -0.05
Li     1  0.1896090000000 -0.1896090000000  0.0000000000000 1.0   0.05
Li     1 -0.1896090000000  0.1896090000000  0.0000000000000 1.0   0.05
O      2 -0.3692150000000  0.3692150000000  0.0000000000000 1.0   0.25
O      2  0.3692150000000 -0.3692150000000  0.0000000000000 1.0   0.25
O      2  0.0000000000000  0.0000000000000  0.0000000000000 1.0   0.02
S      3  0.0400980000000 -0.3939100000000 -0.0592490000000 1.0   0.21
S      3 -0.3346610000000  0.0993470000000  0.0592490000000 1.0   0.21
S      3 -0.0993470000000  0.3346610000000 -0.0592490000000 1.0   0.21
S      3  0.3939100000000 -0.0400980000000  0.0592490000000 1.0   0.21
S      3  0.4527100000000  0.5472900000000  0.5000000000000 1.0   0.19
S      3  0.0472900000000  0.9527100000000  0.5000000000000 1.0   0.19
Fe     4 -0.2282050000000 -0.4633630000000 -0.1626040000000 1.0   3.56
Fe     4 -0.3007580000000 -0.0656010000000  0.1626040000000 1.0   3.56
Fe     4  0.0656010000000 -0.6992420000000 -0.1626040000000 1.0   3.56
Fe     4 -0.5366370000000  0.2282050000000  0.1626040000000 1.0   3.56
Fe     4  0.4218460000000  0.4218460000000  0.0000000000000 1.0   3.71
Fe     4 -0.4218460000000 -0.4218460000000  0.0000000000000 1.0   3.71
END
