TITL LFSO-LiFe3S4O-201028-142025-b9b91e 0.0043 177.394309 -4.43839362E+003 11.8007 12.0091 9 (C2) n - 1
REM
REM Run started: Wed, 28 Oct 2020 17:15:18 +0000 in /scratch/scratch/uccabz1/launch_tmp/launcher_2020-10-28-15-35-01-391767
REM CASTEP 19.11| from code version Version unavailable
REM Functional Perdew Burke Ernzerhof Relativity Koelling-Harmon Dispersion off
REM Cut-off 340.0000 eV Grid scale 1.7500 Gmax 16.5316 1/A FBSC none
REM MP grid 5 3 3 Offset 0.000 0.000 0.000 No. kpts 16 Spacing 0.07
REM Total runtime: 8562.01 s
REM Overall efficiency: 89.2308 %
REM
REM
REM
REM compiler GCC version 4.9.2
REM options -cpp -iprefix /lustre/shared/ucl/apps/gcc/4.9.2/bin/../lib/gcc/x86_64-unknown-linux-gnu/4.9.2/ -mtune=corei7 -march=x86-64 -g -Og
REM COMMAND_LINE
REM seed 472256723 -1935712765 -492267938 -340800072 -710061357 1636241679 -1084683336 -1347694867 -1336449397 2085258672 406896974 -1211180767
REM
REM S 3|1.8|5|6|7|30:31:32(qc=5)
REM O 2|1.5|12|13|15|20:21(qc=5)
REM Li 1|1.3|8|9|10|10U:20(qc=5)
REM Fe 3|2.2|2.0|1.0|8|9|10|40:41:32(qc=5)
REM Fe d:4.0 
REM
CELL 1.54180    3.93849    7.42825    7.42825  113.96003  104.18084  104.18084
LATT -1
SFAC Li O  S  Fe 
Li     1  0.5000000000000  0.1498140000000 -0.1498140000000 1.0  -0.05
O      2 -0.5000000000000 -0.1496300000000  0.1496300000000 1.0   0.18
S      3 -0.4107750000000 -0.1781940000000 -0.3144760000000 1.0   0.07
S      3  0.4107750000000  0.3144760000000  0.1781940000000 1.0   0.07
S      3 -0.1789870000000  0.3860500000000 -0.2558660000000 1.0  -0.01
S      3  0.1789870000000  0.2558660000000 -0.3860500000000 1.0  -0.01
Fe     4  0.1197760000000 -0.2379310000000 -0.1373240000000 1.0   3.82
Fe     4 -0.1197760000000  0.1373240000000  0.2379310000000 1.0   3.82
Fe     4 -0.5000000000000 -0.3096340000000  0.3096340000000 1.0   3.89
END
