TITL LFSO-Li5FeS2O2-201026-013701-13111b 0.0417 151.987579 -3.34464580E+003 3.28282 3.82341 10 (Cm) n - 1
REM
REM Run started: Mon, 26 Oct 2020 02:21:11 +0000 in /scratch/scratch/uccabz1/launch_tmp/launcher_2020-10-26-01-36-59-392654
REM CASTEP 19.11| from code version Version unavailable
REM Functional Perdew Burke Ernzerhof Relativity Koelling-Harmon Dispersion off
REM Cut-off 340.0000 eV Grid scale 1.7500 Gmax 16.5316 1/A FBSC none
REM MP grid 4 4 3 Offset 0.000 0.000 0.000 No. kpts 16 Spacing 0.07
REM Total runtime: 2684.58 s
REM Overall efficiency: 91.4286 %
REM
REM
REM
REM compiler GCC version 4.9.2
REM options -cpp -iprefix /scratch/UCL/applications/gcc/4.9.2/bin/../lib/gcc/x86_64-unknown-linux-gnu/4.9.2/ -mtune=corei7 -march=x86-64 -g -O2
REM COMMAND_LINE
REM seed -247750989 -1949451470 -995055354 -788936042 -467139141 -508151313 2068528748 246496367 955498268 1626068507 905371139 -726268164
REM
REM S 3|1.8|5|6|7|30:31:32(qc=5)
REM O 2|1.5|12|13|15|20:21(qc=5)
REM Li 1|1.3|8|9|10|10U:20(qc=5)
REM Fe 3|2.2|2.0|1.0|8|9|10|40:41:32(qc=5)
REM Fe d:4.0 
REM
CELL 1.54180    5.26654    5.26654    7.93554   56.32871   56.32871   75.30183
LATT -1
SFAC Li O  S  Fe 
Li     1  0.3295710000000 -0.1370820000000  0.0767490000000 1.0   0.01
Li     1 -0.1370820000000  0.3295710000000  0.0767490000000 1.0   0.01
Li     1  0.4011960000000 -0.0784130000000  0.3489450000000 1.0  -0.04
Li     1 -0.0784130000000  0.4011960000000  0.3489450000000 1.0  -0.04
Li     1  0.2572930000000  0.2572930000000 -0.4140540000000 1.0   0.03
O      2  0.1239670000000 -0.3404680000000  0.4002640000000 1.0   0.06
O      2 -0.3404680000000  0.1239670000000  0.4002640000000 1.0   0.06
S      3  0.2141800000000 -0.2907560000000 -0.0981140000000 1.0  -0.09
S      3 -0.2907560000000  0.2141800000000 -0.0981140000000 1.0  -0.09
Fe     4 -0.2847540000000 -0.2847540000000 -0.3868760000000 1.0   3.40
END
