TITL LFSO-Li5FeS2O2-201026-211436-1952ec -0.0097 169.638295 -3.34399317E+003 3.00000 3.37448 10 (P2) n - 1
REM
REM Run started: Mon, 26 Oct 2020 22:38:30 +0000 in /scratch/scratch/uccabz1/launch_tmp/launcher_2020-10-26-21-14-35-257521
REM CASTEP 19.11| from code version Version unavailable
REM Functional Perdew Burke Ernzerhof Relativity Koelling-Harmon Dispersion off
REM Cut-off 340.0000 eV Grid scale 1.7500 Gmax 16.5316 1/A FBSC none
REM MP grid 4 3 2 Offset 0.000 0.000 0.000 No. kpts 6 Spacing 0.07
REM Total runtime: 5379.46 s
REM Overall efficiency: 93.5 %
REM
REM
REM
REM compiler GCC version 4.9.2
REM options -cpp -iprefix /scratch/UCL/applications/gcc/4.9.2/bin/../lib/gcc/x86_64-unknown-linux-gnu/4.9.2/ -mtune=corei7 -march=x86-64 -g -O2
REM COMMAND_LINE
REM seed -1448480086 238977895 1191960697 2043948873 -1603436738 -198570168 -494691209 1064597380 1701415542 -687784724 -1718938355 264380302
REM
REM S 3|1.8|5|6|7|30:31:32(qc=5)
REM O 2|1.5|12|13|15|20:21(qc=5)
REM Li 1|1.3|8|9|10|10U:20(qc=5)
REM Fe 3|2.2|2.0|1.0|8|9|10|40:41:32(qc=5)
REM Fe d:4.0 
REM
CELL 1.54180    4.02893    6.07828    7.26544   90.00000   90.00000   72.44655
LATT -1
SFAC Li O  S  Fe 
Li     1  0.4230790000000  0.3008800000000 -0.3361590000000 1.0  -0.02
Li     1 -0.4230790000000 -0.3008800000000 -0.3361590000000 1.0  -0.02
Li     1  0.1764930000000 -0.3708920000000 -0.0436930000000 1.0  -0.02
Li     1 -0.1764930000000  0.3708920000000 -0.0436930000000 1.0  -0.02
Li     1  0.0000000000000  0.0000000000000  0.2708180000000 1.0  -0.15
O      2  0.3553100000000  0.3106840000000 -0.0782600000000 1.0   0.05
O      2 -0.3553100000000 -0.3106840000000 -0.0782600000000 1.0   0.05
S      3 -0.0534970000000  0.3381080000000  0.4716420000000 1.0   0.00
S      3  0.0534970000000 -0.3381080000000  0.4716420000000 1.0   0.00
Fe     4  0.5000000000000  0.0000000000000 -0.0447900000000 1.0   3.14
END
