TITL LFSO-Li6FeSO3-201028-060454-ee676f -1.0073 338.422681 -7357.007705452 8.00000 8.19618 22 (P-1) n - 1
REM
REM Run started: Thu, 29 Oct 2020 06:10:41 +0000 in /scratch/scratch/uccabz1/launch_tmp/launcher_2020-10-28-06-04-53-140235
REM CASTEP 19.11| from code version Version unavailable
REM Functional Perdew Burke Ernzerhof Relativity Koelling-Harmon Dispersion off
REM Cut-off 340.0000 eV Grid scale 1.7500 Gmax 16.5316 1/A FBSC none
REM MP grid 3 4 5 Offset 0.000 0.000 0.000 No. kpts 30 Spacing 0.07
REM Total runtime: 86738.2 s
REM Overall efficiency: 95.4545 %
REM
REM
REM
REM compiler GCC version 4.9.2
REM options -cpp -iprefix /scratch/UCL/applications/gcc/4.9.2/bin/../lib/gcc/x86_64-unknown-linux-gnu/4.9.2/ -mtune=corei7 -march=x86-64 -g -O2
REM COMMAND_LINE
REM seed -475274204 1363729081 -1824946833 679384906 -390700529 -1430521386 1289213150 342347335 1974928416 -2023316216 -992857422 -882847901
REM
REM S 3|1.8|5|6|7|30:31:32(qc=5)
REM O 2|1.5|12|13|15|20:21(qc=5)
REM Li 1|1.3|8|9|10|10U:20(qc=5)
REM Fe 3|2.2|2.0|1.0|8|9|10|40:41:32(qc=5)
REM Fe d:4.0 
REM
CELL 1.54180   14.71682   18.66115   14.76908  166.93171  157.55717   22.71255
LATT -1
SFAC Li O  S  Fe 
Li     1  0.0064000000000 -0.2619180000000 -0.4535170000000 1.0  -0.01
Li     1 -0.0064000000000  0.2619180000000  0.4535170000000 1.0  -0.01
Li     1 -0.4759750000000  0.4889520000000  0.6658790000000 1.0  -0.02
Li     1  0.4759750000000 -0.4889520000000 -0.6658790000000 1.0  -0.02
Li     1  0.2587600000000  0.3660640000000  0.5128670000000 1.0  -0.00
Li     1 -0.2587600000000 -0.3660640000000 -0.5128670000000 1.0  -0.00
Li     1  0.2443970000000 -0.1637870000000 -0.3093910000000 1.0  -0.02
Li     1 -0.2443970000000  0.1637870000000  0.3093910000000 1.0  -0.02
Li     1  0.2199000000000  0.5874930000000 -0.0636320000000 1.0   0.00
Li     1 -0.2199000000000 -0.5874930000000  0.0636320000000 1.0   0.00
Li     1 -0.2229180000000  0.0279460000000 -0.1779770000000 1.0  -0.01
Li     1  0.2229180000000 -0.0279460000000  0.1779770000000 1.0  -0.01
O      2 -0.2272970000000  0.1588700000000 -0.5576630000000 1.0   0.10
O      2  0.2272970000000 -0.1588700000000  0.5576630000000 1.0   0.10
O      2 -0.0274110000000  0.3765950000000 -0.5500140000000 1.0   0.01
O      2  0.0274110000000 -0.3765950000000  0.5500140000000 1.0   0.01
O      2  0.2226850000000  0.6143550000000  0.4974680000000 1.0   0.10
O      2 -0.2226850000000 -0.6143550000000 -0.4974680000000 1.0   0.10
S      3 -0.4124520000000  0.0092170000000  0.4538560000000 1.0   0.01
S      3  0.4124520000000 -0.0092170000000 -0.4538560000000 1.0   0.01
Fe     4 -0.0660610000000 -0.2914700000000  0.0770150000000 1.0   3.85
Fe     4  0.0660610000000  0.2914700000000 -0.0770150000000 1.0   3.85
END
