TITL LFSO-Li5FeSO3-201026-210820-2de3e7 -0.0047 319.174799 -6.95574273E+003 6.00334 7.37827 20 (F222) n - 1
REM
REM Run started: Tue, 27 Oct 2020 10:33:45 +0000 in /lustre/scratch/uccabz1/launch_tmp/launcher_2020-10-26-21-08-19-280926
REM CASTEP 20.1 from code version af48c487+ pr-geom-scf-spinfix Tue Jun 2 15:39:59 2020 +0100
REM Functional Perdew Burke Ernzerhof Relativity Koelling-Harmon Dispersion off
REM Cut-off 340.0000 eV Grid scale 1.7500 Gmax 16.5316 1/A FBSC none
REM MP grid 3 3 3 Offset 0.000 0.000 0.000 No. kpts 8 Spacing 0.07
REM Total runtime: 25973.3 s
REM Overall efficiency: 97.6923 %
REM
REM
REM
REM compiler GCC version 4.9.2
REM options -cpp -iprefix /lustre/shared/ucl/apps/gcc/4.9.2/bin/../lib/gcc/x86_64-unknown-linux-gnu/4.9.2/ -mtune=corei7 -march=x86-64 -g -Og
REM COMMAND_LINE
REM seed 350004654 555606730 -1649439068 1246747828 319004367 -931523048 -556754040 -193788743 164849502 288691687 1947218268 -535052274
REM
REM S 3|1.8|5|6|7|30:31:32(qc=5)
REM O 2|1.5|12|13|15|20:21(qc=5)
REM Li 1|1.3|8|9|10|10U:20(qc=5)
REM Fe 3|2.2|2.0|1.0|8|9|10|40:41:32(qc=5)
REM Fe d:4.0 
REM
CELL 1.54180    9.84072    7.22856    7.85646   64.76704   51.22364   47.10294
LATT -1
SFAC Li O  S  Fe 
Li     1 -0.2714200000000 -0.1750670000000  0.1040060000000 1.0   0.00
Li     1  0.4464870000000 -0.1750670000000 -0.1040060000000 1.0   0.00
Li     1  0.1674140000000  0.1750670000000  0.1040060000000 1.0   0.00
Li     1  0.6575190000000  0.1750670000000 -0.1040060000000 1.0   0.00
Li     1 -0.2132230000000  0.3514300000000  0.2846830000000 1.0  -0.02
Li     1 -0.1382070000000  0.3514300000000 -0.2846830000000 1.0  -0.02
Li     1 -0.0714600000000 -0.3514310000000  0.2846830000000 1.0  -0.02
Li     1 -0.5771100000000 -0.3514310000000 -0.2846830000000 1.0  -0.02
Li     1  0.4300210000000  0.5000000000000  0.1399570000000 1.0  -0.01
Li     1  0.0699790000000 -0.5000000000000 -0.1399570000000 1.0  -0.01
O      2  0.2550680000000 -0.1568050000000  0.2102330000000 1.0  -0.01
O      2 -0.0982630000000 -0.1568050000000 -0.2102330000000 1.0  -0.01
O      2 -0.4653010000000  0.1568050000000  0.2102330000000 1.0  -0.01
O      2  0.3084960000000  0.1568050000000 -0.2102330000000 1.0  -0.01
O      2  0.5854970000000  0.5000000000000 -0.1709950000000 1.0  -0.01
O      2 -0.0854970000000 -0.5000000000000  0.1709950000000 1.0  -0.01
S      3 -0.2157050000000 -0.0000000000000  0.4314100000000 1.0  -0.26
S      3  0.2157050000000 -0.0000000000000 -0.4314100000000 1.0  -0.26
Fe     4  0.4383810000000  0.1232370000000 -0.5000000000000 1.0   3.32
Fe     4  0.0616190000000 -0.1232370000000  0.5000000000000 1.0   3.32
END
