TITL LFSO-Li6FeSO3-201028-074331-d17684 -0.0045 352.332047 -7.35665189E+003 8.00000 8.27745 22 (Ama2) n - 1
REM
REM Run started: Wed, 28 Oct 2020 10:14:35 +0000 in /scratch/scratch/uccabz1/launch_tmp/launcher_2020-10-28-07-43-29-428645
REM CASTEP 19.11| from code version Version unavailable
REM Functional Perdew Burke Ernzerhof Relativity Koelling-Harmon Dispersion off
REM Cut-off 340.0000 eV Grid scale 1.7500 Gmax 16.5316 1/A FBSC none
REM MP grid 3 3 2 Offset 0.000 0.000 0.000 No. kpts 4 Spacing 0.07
REM Total runtime: 10132.4 s
REM Overall efficiency: 81.5 %
REM
REM
REM
REM compiler GCC version 4.9.2
REM options -cpp -iprefix /scratch/UCL/applications/gcc/4.9.2/bin/../lib/gcc/x86_64-unknown-linux-gnu/4.9.2/ -mtune=corei7 -march=x86-64 -g -O2
REM COMMAND_LINE
REM seed -1040334561 691354447 -2021734462 255555101 -542293115 1589514236 1273160390 1442422180 1374491862 -1287389244 -1332475400 -2125626089
REM
REM S 3|1.8|5|6|7|30:31:32(qc=5)
REM O 2|1.5|12|13|15|20:21(qc=5)
REM Li 1|1.3|8|9|10|10U:20(qc=5)
REM Fe 3|2.2|2.0|1.0|8|9|10|40:41:32(qc=5)
REM Fe d:4.0 
REM
CELL 1.54180    7.29911    6.14490    9.76400   90.00000   90.00000  126.43544
LATT -1
SFAC Li O  S  Fe 
Li     1 -0.1937600000000 -0.7062300000000 -0.3959510000000 1.0  -0.01
Li     1 -0.5124700000000 -0.7062300000000  0.3959510000000 1.0  -0.01
Li     1 -0.5124700000000 -0.7062300000000  0.1040490000000 1.0  -0.01
Li     1 -0.1937600000000 -0.7062300000000 -0.1040490000000 1.0  -0.01
Li     1  0.0220830000000  0.1189670000000 -0.1008380000000 1.0  -0.02
Li     1  0.0968850000000  0.1189670000000  0.1008380000000 1.0  -0.02
Li     1  0.0968850000000  0.1189670000000  0.3991620000000 1.0  -0.02
Li     1  0.0220830000000  0.1189670000000 -0.3991620000000 1.0  -0.02
Li     1  0.3464650000000 -0.0923450000000 -0.1214260000000 1.0  -0.01
Li     1 -0.4388100000000 -0.0923450000000  0.1214260000000 1.0  -0.01
Li     1 -0.4388100000000 -0.0923450000000  0.3785740000000 1.0  -0.01
Li     1  0.3464650000000 -0.0923450000000 -0.3785740000000 1.0  -0.01
O      2 -0.1505820000000  0.1210590000000  0.0449500000000 1.0   0.07
O      2  0.2716410000000  0.1210590000000 -0.0449500000000 1.0   0.07
O      2  0.2716410000000  0.1210590000000 -0.4550500000000 1.0   0.07
O      2 -0.1505820000000  0.1210590000000  0.4550500000000 1.0   0.07
O      2 -0.4117730000000  0.1793490000000 -0.2500000000000 1.0   0.10
O      2 -0.4088790000000  0.1793490000000  0.2500000000000 1.0   0.10
S      3  0.3166280000000 -0.5123970000000  0.2500000000000 1.0   0.02
S      3  0.1709750000000 -0.5123970000000 -0.2500000000000 1.0   0.02
Fe     4  0.3914730000000  0.2964440000000 -0.2500000000000 1.0   3.81
Fe     4 -0.0950280000000  0.2964440000000  0.2500000000000 1.0   3.81
END
