TITL LFSO-Li2Fe3S3O-201025-134531-52a173 -0.0388 193.424698 -4.33515170E+003 12.0000 12.1000 9 (P3) n - 1
REM
REM Run started: Sun, 25 Oct 2020 15:00:50 +0000 in /lustre/scratch/uccabz1/launch_tmp/launcher_2020-10-25-13-45-29-476327
REM CASTEP 20.1 from code version af48c487+ pr-geom-scf-spinfix Tue Jun 2 15:39:59 2020 +0100
REM Functional Perdew Burke Ernzerhof Relativity Koelling-Harmon Dispersion off
REM Cut-off 340.0000 eV Grid scale 1.7500 Gmax 16.5316 1/A FBSC none
REM MP grid 3 3 3 Offset 0.000 0.000 0.000 No. kpts 8 Spacing 0.07
REM Total runtime: 4898.77 s
REM Overall efficiency: 82.3 %
REM
REM
REM
REM compiler GCC version 4.9.2
REM options -cpp -iprefix /lustre/shared/ucl/apps/gcc/4.9.2/bin/../lib/gcc/x86_64-unknown-linux-gnu/4.9.2/ -mtune=corei7 -march=x86-64 -g -Og
REM COMMAND_LINE
REM seed 1668489071 1171848295 -1422438030 96887923 957109995 2063580329 272261624 -97496375 370031087 1117253826 -453312818 753319738
REM
REM S 3|1.8|5|6|7|30:31:32(qc=5)
REM O 2|1.5|12|13|15|20:21(qc=5)
REM Li 1|1.3|8|9|10|10U:20(qc=5)
REM Fe 3|2.2|2.0|1.0|8|9|10|40:41:32(qc=5)
REM Fe d:4.0 
REM
CELL 1.54180    4.97009    6.70360    6.70360  120.00000   90.00000   90.00000
LATT -1
SFAC Li O  S  Fe 
Li     1  0.5581720000000 -0.3333330000000  0.3333330000000 1.0  -0.03
Li     1 -0.4673180000000  0.0000000000000  0.0000000000000 1.0  -0.09
O      2  0.1670220000000  0.0000000000000  0.0000000000000 1.0   0.23
S      3 -0.1934050000000 -0.3774430000000  0.0045760000000 1.0   0.16
S      3 -0.1934050000000  0.3820190000000  0.3774430000000 1.0   0.16
S      3 -0.1934050000000 -0.0045760000000 -0.3820190000000 1.0   0.16
Fe     4 -0.0214290000000  0.0049990000000  0.2766210000000 1.0   3.81
Fe     4 -0.0214290000000  0.2716220000000 -0.0049990000000 1.0   3.81
Fe     4 -0.0214290000000 -0.2766210000000 -0.2716220000000 1.0   3.81
END
