TITL LFSO-Li2Fe3S2O2-201022-094240-65e2d0 0.0166 165.224463 -4.46885165E+003 11.6468 11.7572 9 (Pmm2) n - 1
REM
REM Run started: Thu, 22 Oct 2020 16:43:26 +0100 in /lustre/scratch/uccabz1/launch_tmp/launcher_2020-10-22-08-42-38-830036
REM CASTEP 20.1 from code version af48c487+ pr-geom-scf-spinfix Tue Jun 2 15:39:59 2020 +0100
REM Functional Perdew Burke Ernzerhof Relativity Koelling-Harmon Dispersion off
REM Cut-off 340.0000 eV Grid scale 1.7500 Gmax 16.5316 1/A FBSC none
REM MP grid 5 5 2 Offset 0.000 0.000 0.000 No. kpts 13 Spacing 0.07
REM Total runtime: 26712.9 s
REM Overall efficiency: 71 %
REM
REM
REM
REM compiler GCC version 4.9.2
REM options -cpp -iprefix /lustre/shared/ucl/apps/gcc/4.9.2/bin/../lib/gcc/x86_64-unknown-linux-gnu/4.9.2/ -mtune=corei7 -march=x86-64 -g -Og
REM COMMAND_LINE
REM seed 1713943923 -1629855371 -300247983 -457765307 -306124674 679010439 319639176 -706926312 -619435552 -1610171305 1884776981 -2063177297
REM
REM S 3|1.8|5|6|7|30:31:32(qc=5)
REM O 2|1.5|12|13|15|20:21(qc=5)
REM Li 1|1.3|8|9|10|10U:20(qc=5)
REM Fe 3|2.2|2.0|1.0|8|9|10|40:41:32(qc=5)
REM Fe d:4.0 
REM
CELL 1.54180    3.28117    3.52937   14.26759   90.00000   90.00000   90.18280
LATT -1
SFAC Li O  S  Fe 
Li     1 -0.4244670000000  0.2179730000000 -0.3627410000000 1.0  -0.08
Li     1 -0.4244670000000  0.2179730000000  0.3627410000000 1.0  -0.08
O      2 -0.5327500000000 -0.2847340000000 -0.4028060000000 1.0   0.13
O      2 -0.5327500000000 -0.2847340000000  0.4028060000000 1.0   0.13
S      3 -0.2802810000000  0.2149510000000 -0.1916450000000 1.0   0.11
S      3 -0.2802810000000  0.2149510000000  0.1916450000000 1.0   0.11
Fe     4  0.2164540000000 -0.2807000000000 -0.2165760000000 1.0   3.74
Fe     4  0.2164540000000 -0.2807000000000  0.2165760000000 1.0   3.74
Fe     4  0.0173660000000 -0.2773680000000 -0.5000000000000 1.0   3.84
END
