TITL LFSO-Li6FeS3O-201027-201347-567f10 -0.0026 365.871633 -6.82286994E+003 8.00000 8.24585 22 (R3) n - 1
REM
REM Run started: Tue, 27 Oct 2020 23:11:13 +0000 in /lustre/scratch/uccabz1/launch_tmp/launcher_2020-10-27-20-13-45-964387
REM CASTEP 20.1 from code version af48c487+ pr-geom-scf-spinfix Tue Jun 2 15:39:59 2020 +0100
REM Functional Perdew Burke Ernzerhof Relativity Koelling-Harmon Dispersion off
REM Cut-off 340.0000 eV Grid scale 1.7500 Gmax 16.5316 1/A FBSC none
REM MP grid 3 3 3 Offset 0.000 0.000 0.000 No. kpts 6 Spacing 0.07
REM Total runtime: 11176.8 s
REM Overall efficiency: 74.5556 %
REM
REM
REM
REM compiler GCC version 4.9.2
REM options -cpp -iprefix /lustre/shared/ucl/apps/gcc/4.9.2/bin/../lib/gcc/x86_64-unknown-linux-gnu/4.9.2/ -mtune=corei7 -march=x86-64 -g -Og
REM COMMAND_LINE
REM seed 192707367 -1152719652 1315948446 -2039838478 265162356 1656820242 -1753852497 -1809249366 -486169409 1919584314 -1067825240 -1726185994
REM
REM S 3|1.8|5|6|7|30:31:32(qc=5)
REM O 2|1.5|12|13|15|20:21(qc=5)
REM Li 1|1.3|8|9|10|10U:20(qc=5)
REM Fe 3|2.2|2.0|1.0|8|9|10|40:41:32(qc=5)
REM Fe d:4.0 
REM
CELL 1.54180    7.17350    7.17350    7.17350   94.29221   94.29221   94.29221
LATT -1
SFAC Li O  S  Fe 
Li     1  0.1601700000000 -0.6129100000000 -0.5092020000000 1.0  -0.02
Li     1 -0.5092020000000  0.1601700000000 -0.6129100000000 1.0  -0.02
Li     1 -0.6129100000000 -0.5092020000000  0.1601700000000 1.0  -0.02
Li     1  0.0084810000000 -0.2091500000000  0.2863070000000 1.0  -0.01
Li     1  0.2863070000000  0.0084810000000 -0.2091500000000 1.0  -0.01
Li     1 -0.2091500000000  0.2863070000000  0.0084810000000 1.0  -0.01
Li     1 -0.2611580000000  0.5113850000000  0.4104290000000 1.0  -0.01
Li     1  0.4104290000000 -0.2611580000000  0.5113850000000 1.0  -0.01
Li     1  0.5113850000000  0.4104290000000 -0.2611580000000 1.0  -0.01
Li     1  0.0905390000000 -0.3635820000000 -0.0838770000000 1.0  -0.02
Li     1 -0.0838770000000  0.0905390000000 -0.3635820000000 1.0  -0.02
Li     1 -0.3635820000000 -0.0838770000000  0.0905390000000 1.0  -0.02
O      2 -0.4170770000000 -0.4170770000000 -0.4170770000000 1.0   0.08
O      2  0.3227980000000  0.3227980000000  0.3227980000000 1.0   0.06
S      3 -0.2366930000000 -0.3842470000000  0.0622890000000 1.0   0.04
S      3  0.0622890000000 -0.2366930000000 -0.3842470000000 1.0   0.04
S      3 -0.3842470000000  0.0622890000000 -0.2366930000000 1.0   0.04
S      3  0.1560380000000  0.3029840000000 -0.1512530000000 1.0   0.04
S      3 -0.1512530000000  0.1560380000000  0.3029840000000 1.0   0.04
S      3  0.3029840000000 -0.1512530000000  0.1560380000000 1.0   0.04
Fe     4 -0.2435300000000 -0.2435300000000 -0.2435300000000 1.0   3.87
Fe     4  0.1445010000000  0.1445010000000  0.1445010000000 1.0   3.89
END
