TITL LFSO-Li2FeSO-201025-022703-a7be6c -0.0407 70.485779 -2.00351442E+003 4.00000 4.06176 5 (R3m) n - 1
REM
REM Run started: Sun, 25 Oct 2020 02:45:13 +0000 in /lustre/scratch/uccabz1/launch_tmp/launcher_2020-10-25-02-27-01-981627
REM CASTEP 20.1 from code version af48c487+ pr-geom-scf-spinfix Tue Jun 2 15:39:59 2020 +0100
REM Functional Perdew Burke Ernzerhof Relativity Koelling-Harmon Dispersion off
REM Cut-off 340.0000 eV Grid scale 1.7500 Gmax 16.5316 1/A FBSC none
REM MP grid 5 5 5 Offset 0.000 0.000 0.000 No. kpts 19 Spacing 0.07
REM Total runtime: 1555.08 s
REM Overall efficiency: 68.5 %
REM
REM
REM
REM compiler GCC version 4.9.2
REM options -cpp -iprefix /lustre/shared/ucl/apps/gcc/4.9.2/bin/../lib/gcc/x86_64-unknown-linux-gnu/4.9.2/ -mtune=corei7 -march=x86-64 -g -Og
REM COMMAND_LINE
REM seed -1436350660 1251707578 890617907 2076320795 -1243811561 2096819183 72215893 -1842478123 511035132 1490030220 -1251347198 1387042731
REM
REM S 3|1.8|5|6|7|30:31:32(qc=5)
REM O 2|1.5|12|13|15|20:21(qc=5)
REM Li 1|1.3|8|9|10|10U:20(qc=5)
REM Fe 3|2.2|2.0|1.0|8|9|10|40:41:32(qc=5)
REM Fe d:4.0 
REM
CELL 1.54180    6.62828    6.62828    6.62828   31.47692   31.47692   31.47692
LATT -1
SFAC Li O  S  Fe 
Li     1 -0.5063580000000 -0.5063580000000 -0.5063580000000 1.0  -0.03
Li     1  0.2528970000000  0.2528970000000  0.2528970000000 1.0  -0.00
O      2  0.1563710000000  0.1563710000000  0.1563710000000 1.0   0.12
S      3 -0.3428850000000 -0.3428850000000 -0.3428850000000 1.0   0.26
Fe     4  0.0549020000000  0.0549020000000  0.0549020000000 1.0   3.66
END
