TITL LFSO-Li2Fe4S3O2-201025-063022-abaad8 0.0127 425.179655 -1.12711322E+004 -32.0000 32.3227 22 (R3) n - 1
REM
REM Run started: Mon, 26 Oct 2020 07:10:47 +0000 in /scratch/scratch/uccabz1/launch_tmp/launcher_2020-10-25-06-30-20-823231
REM CASTEP 19.11| from code version Version unavailable
REM Functional Perdew Burke Ernzerhof Relativity Koelling-Harmon Dispersion off
REM Cut-off 340.0000 eV Grid scale 1.7500 Gmax 16.5316 1/A FBSC none
REM MP grid 3 3 3 Offset 0.000 0.000 0.000 No. kpts 6 Spacing 0.07
REM Total runtime: 104763 s
REM Overall efficiency: 98.0909 %
REM
REM
REM
REM compiler GCC version 4.9.2
REM options -cpp -iprefix /scratch/UCL/applications/gcc/4.9.2/bin/../lib/gcc/x86_64-unknown-linux-gnu/4.9.2/ -mtune=corei7 -march=x86-64 -g -O2
REM COMMAND_LINE
REM seed -414549032 -1791457749 -375902163 -900463346 -1415700293 -820367568 1184549962 -2113927557 -1167520497 819352811 1369145110 1571806856
REM
REM S 3|1.8|5|6|7|30:31:32(qc=5)
REM O 2|1.5|12|13|15|20:21(qc=5)
REM Li 1|1.3|8|9|10|10U:20(qc=5)
REM Fe 3|2.2|2.0|1.0|8|9|10|40:41:32(qc=5)
REM Fe d:4.0 
REM
CELL 1.54180    8.35338    8.35338    8.35338   61.40570   61.40570   61.40570
LATT -1
SFAC Li O  S  Fe 
Li     1  0.2260440000000 -0.0742720000000  0.4643790000000 1.0   0.06
Li     1  0.4643790000000  0.2260440000000 -0.0742720000000 1.0   0.06
Li     1 -0.0742720000000  0.4643790000000  0.2260440000000 1.0   0.06
Li     1  0.3244780000000  0.3244780000000  0.3244780000000 1.0   0.01
O      2 -0.3575710000000  0.2558770000000 -0.3285500000000 1.0  -0.18
O      2 -0.3285500000000 -0.3575710000000  0.2558770000000 1.0  -0.18
O      2  0.2558770000000 -0.3285500000000 -0.3575710000000 1.0  -0.18
O      2 -0.0542330000000 -0.0542330000000 -0.0542330000000 1.0  -0.14
S      3 -0.0457000000000 -0.0614020000000  0.4143070000000 1.0  -0.14
S      3  0.4143070000000 -0.0457000000000 -0.0614020000000 1.0  -0.14
S      3 -0.0614020000000  0.4143070000000 -0.0457000000000 1.0  -0.14
S      3 -0.5098870000000  0.0018070000000  0.4366790000000 1.0  -0.08
S      3  0.4366790000000 -0.5098870000000  0.0018070000000 1.0  -0.08
S      3  0.0018070000000  0.4366790000000 -0.5098870000000 1.0  -0.08
Fe     4  0.6180250000000  0.0674930000000 -0.4011520000000 1.0  -3.85
Fe     4 -0.4011520000000  0.6180250000000  0.0674930000000 1.0  -3.85
Fe     4  0.0674930000000 -0.4011520000000  0.6180250000000 1.0  -3.85
Fe     4 -0.2510280000000 -0.1338970000000  0.2023190000000 1.0  -3.86
Fe     4  0.2023190000000 -0.2510280000000 -0.1338970000000 1.0  -3.86
Fe     4 -0.1338970000000  0.2023190000000 -0.2510280000000 1.0  -3.86
Fe     4 -0.4664850000000 -0.4664850000000 -0.4664850000000 1.0  -3.83
Fe     4  0.0882230000000  0.0882230000000  0.0882230000000 1.0  -3.87
END
