TITL LFSO-Li2Fe2S2O-201023-203831-d22802 -0.0104 268.223831 -6.33832895E+003 -16.0000 16.2436 14 (R3m) n - 1
REM
REM Run started: Sat, 24 Oct 2020 06:40:17 +0100 in /scratch/scratch/uccabz1/launch_tmp/launcher_2020-10-23-19-38-28-611576
REM CASTEP 19.11| from code version Version unavailable
REM Functional Perdew Burke Ernzerhof Relativity Koelling-Harmon Dispersion off
REM Cut-off 340.0000 eV Grid scale 1.7500 Gmax 16.5316 1/A FBSC none
REM MP grid 3 3 3 Offset 0.000 0.000 0.000 No. kpts 6 Spacing 0.07
REM Total runtime: 38308.3 s
REM Overall efficiency: 97.6923 %
REM
REM
REM
REM compiler GCC version 4.9.2
REM options -cpp -iprefix /scratch/UCL/applications/gcc/4.9.2/bin/../lib/gcc/x86_64-unknown-linux-gnu/4.9.2/ -mtune=corei7 -march=x86-64 -g -O2
REM COMMAND_LINE
REM seed -1437796588 74002458 -836644560 -124458334 -790024001 320159137 653640670 576905386 -1835919013 203735116 1828022901 -245269309
REM
REM S 3|1.8|5|6|7|30:31:32(qc=5)
REM O 2|1.5|12|13|15|20:21(qc=5)
REM Li 1|1.3|8|9|10|10U:20(qc=5)
REM Fe 3|2.2|2.0|1.0|8|9|10|40:41:32(qc=5)
REM Fe d:4.0 
REM
CELL 1.54180    7.55816    7.55816    7.55816   54.78451   54.78451   54.78451
LATT -1
SFAC Li O  S  Fe 
Li     1 -0.0989770000000  0.2759190000000 -0.0989770000000 1.0   0.01
Li     1 -0.0989770000000 -0.0989770000000  0.2759190000000 1.0   0.01
Li     1  0.2759190000000 -0.0989770000000 -0.0989770000000 1.0   0.01
Li     1 -0.3743080000000 -0.3743080000000 -0.3743080000000 1.0  -0.00
O      2  0.5265310000000  0.5265310000000  0.5265310000000 1.0  -0.12
O      2  0.1200630000000  0.1200630000000  0.1200630000000 1.0  -0.06
S      3  0.5671040000000  0.0555000000000 -0.4328960000000 1.0  -0.16
S      3 -0.4328960000000  0.5671040000000  0.0555000000000 1.0  -0.16
S      3  0.0555000000000 -0.4328960000000  0.5671040000000 1.0  -0.16
S      3 -0.0718780000000 -0.0718780000000 -0.0718780000000 1.0  -0.07
Fe     4  0.3233710000000 -0.2135450000000  0.3233710000000 1.0  -3.85
Fe     4  0.3233710000000  0.3233710000000 -0.2135450000000 1.0  -3.85
Fe     4 -0.2135450000000  0.3233710000000  0.3233710000000 1.0  -3.85
Fe     4 -0.1961390000000 -0.1961390000000 -0.1961390000000 1.0  -3.75
END
