TITL LFSO-Li2Fe3S2O2-201022-084031-762797 -0.0139 177.984537 -4.46781946E+003 11.9982 12.1310 9 (C2/m) n - 1
REM
REM Run started: Thu, 22 Oct 2020 09:55:13 +0100 in /scratch/scratch/uccabz1/launch_tmp/launcher_2020-10-22-07-40-29-879006
REM CASTEP 19.11| from code version Version unavailable
REM Functional Perdew Burke Ernzerhof Relativity Koelling-Harmon Dispersion off
REM Cut-off 340.0000 eV Grid scale 1.7500 Gmax 16.5316 1/A FBSC none
REM MP grid 5 3 3 Offset 0.000 0.000 0.000 No. kpts 16 Spacing 0.07
REM Total runtime: 4528.82 s
REM Overall efficiency: 82.375 %
REM
REM
REM
REM compiler GCC version 4.9.2
REM options -cpp -iprefix /scratch/UCL/applications/gcc/4.9.2/bin/../lib/gcc/x86_64-unknown-linux-gnu/4.9.2/ -mtune=corei7 -march=x86-64 -g -O2
REM COMMAND_LINE
REM seed -1381352516 1704473713 1525765937 964026822 -559332422 1521356289 1805718024 377046243 -2032995812 1735682079 1357047380 -166420003
REM
REM S 3|1.8|5|6|7|30:31:32(qc=5)
REM O 2|1.5|12|13|15|20:21(qc=5)
REM Li 1|1.3|8|9|10|10U:20(qc=5)
REM Fe 3|2.2|2.0|1.0|8|9|10|40:41:32(qc=5)
REM Fe d:4.0 
REM
CELL 1.54180    3.91823    7.76220    7.76220   64.59997  117.75113  117.75113
LATT -1
SFAC Li O  S  Fe 
Li     1 -0.3180140000000 -0.1788580000000 -0.1788580000000 1.0  -0.13
Li     1  0.3180140000000  0.1788580000000  0.1788580000000 1.0  -0.13
O      2 -0.1739060000000  0.1856960000000  0.1856960000000 1.0   0.20
O      2  0.1739060000000 -0.1856960000000 -0.1856960000000 1.0   0.20
S      3 -0.5000000000000 -0.7092370000000 -0.2907630000000 1.0   0.17
S      3  0.5000000000000  0.7092370000000  0.2907630000000 1.0   0.17
Fe     4 -0.1646310000000 -0.3589350000000 -0.3589350000000 1.0   3.83
Fe     4  0.1646310000000  0.3589350000000  0.3589350000000 1.0   3.83
Fe     4 -0.5000000000000  0.0000000000000  0.0000000000000 1.0   3.87
END
