TITL LFSO-Li2Fe3S3O-201025-064552-ccc441 1.5004 614.324437 -8.66663862E+003 -21.9989 23.2519 18 (Fmm2) n - 1
REM
REM Run started: Sun, 25 Oct 2020 13:55:54 +0000 in /scratch/scratch/uccabz1/launch_tmp/launcher_2020-10-25-06-45-51-110612
REM CASTEP 19.11| from code version Version unavailable
REM Functional Perdew Burke Ernzerhof Relativity Koelling-Harmon Dispersion off
REM Cut-off 340.0000 eV Grid scale 1.7500 Gmax 16.5316 1/A FBSC none
REM MP grid 2 2 3 Offset 0.000 0.000 0.000 No. kpts 5 Spacing 0.07
REM Total runtime: 33980.8 s
REM Overall efficiency: 75.9167 %
REM
REM
REM
REM compiler GCC version 4.9.2
REM options -cpp -iprefix /scratch/UCL/applications/gcc/4.9.2/bin/../lib/gcc/x86_64-unknown-linux-gnu/4.9.2/ -mtune=corei7 -march=x86-64 -g -O2
REM COMMAND_LINE
REM seed 734967549 211175770 -542404115 -1754249006 1761718085 1717459036 174514821 1593058164 -510522627 627908380 -2093259198 1454247365
REM
REM S 3|1.8|5|6|7|30:31:32(qc=5)
REM O 2|1.5|12|13|15|20:21(qc=5)
REM Li 1|1.3|8|9|10|10U:20(qc=5)
REM Fe 3|2.2|2.0|1.0|8|9|10|40:41:32(qc=5)
REM Fe d:4.0 
REM
CELL 1.54180    9.69034    9.69034    9.37405  119.69473  119.69473   92.38304
LATT -1
SFAC Li O  S  Fe 
Li     1  0.1241040000000  0.2062010000000 -0.2074650000000 1.0  -0.00
Li     1 -0.2062010000000 -0.1241040000000  0.2074650000000 1.0  -0.00
Li     1  0.5863330000000 -0.3315690000000 -0.2074650000000 1.0  -0.00
Li     1  0.3315690000000 -0.5863330000000  0.2074650000000 1.0  -0.00
O      2 -0.3319270000000 -0.0761540000000 -0.0000000000000 1.0  -0.19
O      2  0.0761540000000  0.3319270000000 -0.0000000000000 1.0  -0.19
S      3  0.3461750000000  0.0960000000000 -0.2323440000000 1.0   0.12
S      3 -0.0960000000000 -0.3461750000000  0.2323440000000 1.0   0.12
S      3 -0.3283440000000  0.4214810000000 -0.2323440000000 1.0   0.12
S      3 -0.4214810000000  0.3283440000000  0.2323440000000 1.0   0.12
S      3  0.3658540000000 -0.3658540000000 -0.5000000000000 1.0  -0.13
S      3 -0.1341460000000  0.1341460000000  0.5000000000000 1.0  -0.13
Fe     4 -0.2803450000000  0.1397630000000  0.2253820000000 1.0  -3.73
Fe     4 -0.1397630000000  0.2803450000000 -0.2253820000000 1.0  -3.73
Fe     4  0.0856190000000  0.5057270000000  0.2253820000000 1.0  -3.73
Fe     4 -0.5057270000000 -0.0856190000000 -0.2253820000000 1.0  -3.73
Fe     4 -0.2422110000000 -0.5297020000000  0.2280870000000 1.0  -3.45
Fe     4  0.5297020000000  0.2422110000000 -0.2280870000000 1.0  -3.45
END
