TITL LFSO-Li4Fe3S3O2-201029-032417-123819 -0.0081 636.970618 -1.03468814E+004 24.0000 24.4913 24 (P3) n - 1
REM
REM Run started: Thu, 29 Oct 2020 08:43:42 +0000 in /lustre/scratch/uccabz1/launch_tmp/launcher_2020-10-29-03-24-15-512218
REM CASTEP 20.1 from code version af48c487+ pr-geom-scf-spinfix Tue Jun 2 15:39:59 2020 +0100
REM Functional Perdew Burke Ernzerhof Relativity Koelling-Harmon Dispersion off
REM Cut-off 340.0000 eV Grid scale 1.7500 Gmax 16.5316 1/A FBSC none
REM MP grid 2 2 2 Offset 0.000 0.000 0.000 No. kpts 4 Spacing 0.07
REM Total runtime: 19428.2 s
REM Overall efficiency: 75.5556 %
REM
REM
REM
REM compiler GCC version 4.9.2
REM options -cpp -iprefix /lustre/shared/ucl/apps/gcc/4.9.2/bin/../lib/gcc/x86_64-unknown-linux-gnu/4.9.2/ -mtune=corei7 -march=x86-64 -g -Og
REM COMMAND_LINE
REM seed -1140586254 -413810645 801160763 -1434575706 1318882446 -1252512180 -1982573645 1386184003 -698591073 840430178 -1134652835 -678718261
REM
REM S 3|1.8|5|6|7|30:31:32(qc=5)
REM O 2|1.5|12|13|15|20:21(qc=5)
REM Li 1|1.3|8|9|10|10U:20(qc=5)
REM Fe 3|2.2|2.0|1.0|8|9|10|40:41:32(qc=5)
REM Fe d:4.0 
REM
CELL 1.54180    7.42817    9.95070    9.95070  120.00000   90.00000   90.00000
LATT -1
SFAC Li O  S  Fe 
Li     1  0.2421470000000 -0.0129760000000  0.2534940000000 1.0   0.01
Li     1  0.2421470000000 -0.2534940000000 -0.2664710000000 1.0   0.01
Li     1  0.2421470000000  0.2664710000000  0.0129760000000 1.0   0.01
Li     1 -0.0151390000000  0.1770730000000  0.1762820000000 1.0  -0.03
Li     1 -0.0151390000000 -0.1762820000000  0.0007910000000 1.0  -0.03
Li     1 -0.0151390000000 -0.0007910000000 -0.1770730000000 1.0  -0.03
Li     1 -0.4123390000000  0.0000000000000 -0.0000000000000 1.0   0.02
Li     1 -0.1510490000000  0.3333330000000 -0.3333330000000 1.0  -0.03
O      2  0.0190350000000  0.1953330000000 -0.0010640000000 1.0   0.14
O      2  0.0190350000000  0.0010640000000  0.1963970000000 1.0   0.14
O      2  0.0190350000000 -0.1963970000000 -0.1953330000000 1.0   0.14
O      2 -0.3383670000000 -0.3333330000000  0.3333330000000 1.0   0.24
S      3 -0.1326360000000 -0.4726110000000 -0.0625630000000 1.0   0.10
S      3 -0.1326360000000  0.0625630000000 -0.4100480000000 1.0   0.10
S      3 -0.1326360000000  0.4100480000000  0.4726110000000 1.0   0.10
S      3  0.5558130000000 -0.0784350000000  0.1923540000000 1.0   0.13
S      3  0.5558130000000 -0.1923540000000 -0.2707890000000 1.0   0.13
S      3  0.5558130000000  0.2707890000000  0.0784350000000 1.0   0.13
Fe     4 -0.1655940000000  0.0162880000000  0.3345950000000 1.0   3.79
Fe     4 -0.1655940000000 -0.3345950000000 -0.3183070000000 1.0   3.79
Fe     4 -0.1655940000000  0.3183070000000 -0.0162880000000 1.0   3.79
Fe     4 -0.3151950000000 -0.3140210000000  0.1490980000000 1.0   3.78
Fe     4 -0.3151950000000 -0.1490980000000 -0.4631190000000 1.0   3.78
Fe     4 -0.3151950000000  0.4631190000000  0.3140210000000 1.0   3.78
END
