TITL LFSO-Li2Fe3S3O-201025-191405-644c56 0.0250 191.785514 -4.33451695E+003 12.0000 12.1131 9 (Imm2) n - 1
REM
REM Run started: Sun, 25 Oct 2020 21:34:31 +0000 in /scratch/scratch/uccabz1/launch_tmp/launcher_2020-10-25-19-14-04-301882
REM CASTEP 19.11| from code version Version unavailable
REM Functional Perdew Burke Ernzerhof Relativity Koelling-Harmon Dispersion off
REM Cut-off 340.0000 eV Grid scale 1.7500 Gmax 16.5316 1/A FBSC none
REM MP grid 4 3 3 Offset 0.000 0.000 0.000 No. kpts 18 Spacing 0.07
REM Total runtime: 9158.57 s
REM Overall efficiency: 90.4286 %
REM
REM
REM
REM compiler GCC version 4.9.2
REM options -cpp -iprefix /scratch/UCL/applications/gcc/4.9.2/bin/../lib/gcc/x86_64-unknown-linux-gnu/4.9.2/ -mtune=corei7 -march=x86-64 -g -O2
REM COMMAND_LINE
REM seed -1555555842 715095428 -1998550070 2103954482 -1716588083 -1730077181 -1969290992 25412879 502676321 -1228409948 50916147 1901665449
REM
REM S 3|1.8|5|6|7|30:31:32(qc=5)
REM O 2|1.5|12|13|15|20:21(qc=5)
REM Li 1|1.3|8|9|10|10U:20(qc=5)
REM Fe 3|2.2|2.0|1.0|8|9|10|40:41:32(qc=5)
REM Fe d:4.0 
REM
CELL 1.54180    6.38572    6.38572    6.38572   95.56565  115.44206  118.25624
LATT -1
SFAC Li O  S  Fe 
Li     1 -0.1746210000000  0.0076010000000 -0.1822210000000 1.0  -0.03
Li     1 -0.8101780000000  0.0076010000000  0.1822210000000 1.0  -0.03
O      2  0.2556370000000  0.2556370000000 -0.0000000000000 1.0   0.17
S      3 -0.0980240000000 -0.3403930000000 -0.2423690000000 1.0   0.18
S      3 -0.0980240000000  0.1443450000000  0.2423690000000 1.0   0.18
S      3  0.3632850000000 -0.1367150000000 -0.5000000000000 1.0   0.10
Fe     4  0.2801940000000  0.0595170000000 -0.2206770000000 1.0   3.85
Fe     4  0.2801940000000  0.5008710000000  0.2206770000000 1.0   3.85
Fe     4 -0.0120870000000 -0.5120870000000 -0.5000000000000 1.0   3.75
END
