TITL LFSO-Li4Fe3S4O-201030-061314-81f908 -0.3879 756.913448 -1.00625073E+004 -18.4541 19.3849 24 (P4bm) n - 1
REM
REM Run started: Sat, 31 Oct 2020 02:21:37 +0000 in /lustre/scratch/uccabz1/launch_tmp/launcher_2020-10-30-22-50-50-555561
REM CASTEP 20.1 from code version af48c487+ pr-geom-scf-spinfix Tue Jun 2 15:39:59 2020 +0100
REM Functional Perdew Burke Ernzerhof Relativity Koelling-Harmon Dispersion off
REM Cut-off 340.0000 eV Grid scale 1.7500 Gmax 16.5316 1/A FBSC none
REM MP grid 3 3 1 Offset 0.000 0.000 0.000 No. kpts 3 Spacing 0.07
REM Total runtime: 73135.1 s
REM Overall efficiency: 72.6923 %
REM
REM
REM
REM compiler GCC version 4.9.2
REM options -cpp -iprefix /lustre/shared/ucl/apps/gcc/4.9.2/bin/../lib/gcc/x86_64-unknown-linux-gnu/4.9.2/ -mtune=corei7 -march=x86-64 -g -Og
REM COMMAND_LINE
REM seed 2110537529 -356201950 1771790880 -1463889940 -1771496618 -1335663968 1901409174 676083964 -1400125922 176374561 255092979 -2041693136
REM
REM S 3|1.8|5|6|7|30:31:32(qc=5)
REM O 2|1.5|12|13|15|20:21(qc=5)
REM Li 1|1.3|8|9|10|10U:20(qc=5)
REM Fe 3|2.2|2.0|1.0|8|9|10|40:41:32(qc=5)
REM Fe d:4.0 
REM
CELL 1.54180    5.65200    5.65200   23.69422   90.00000   90.00000   90.00000
LATT -1
SFAC Li O  S  Fe 
Li     1 -0.2475070000000  0.2524930000000  0.2277180000000 1.0   0.01
Li     1  0.2475070000000 -0.2524930000000  0.2277180000000 1.0   0.01
Li     1 -0.2524930000000 -0.2475070000000  0.2277180000000 1.0   0.01
Li     1  0.2524930000000  0.2475070000000  0.2277180000000 1.0   0.01
Li     1  0.1803350000000  0.3196650000000 -0.0381390000000 1.0   0.03
Li     1 -0.1803350000000 -0.3196650000000 -0.0381390000000 1.0   0.03
Li     1 -0.3196650000000  0.1803350000000 -0.0381390000000 1.0   0.03
Li     1  0.3196650000000 -0.1803350000000 -0.0381390000000 1.0   0.03
O      2  0.5000000000000 -0.0000000000000  0.2284560000000 1.0  -0.05
O      2 -0.0000000000000  0.5000000000000  0.2284560000000 1.0  -0.05
S      3 -0.3739620000000 -0.1260380000000 -0.3519270000000 1.0   0.05
S      3  0.3739620000000  0.1260380000000 -0.3519270000000 1.0   0.05
S      3  0.1260380000000 -0.3739620000000 -0.3519270000000 1.0   0.05
S      3 -0.1260380000000  0.3739620000000 -0.3519270000000 1.0   0.05
S      3  0.1300310000000 -0.3699690000000  0.0361070000000 1.0  -0.00
S      3 -0.1300310000000  0.3699690000000  0.0361070000000 1.0  -0.00
S      3  0.3699690000000  0.1300310000000  0.0361070000000 1.0  -0.00
S      3 -0.3699690000000 -0.1300310000000  0.0361070000000 1.0  -0.00
Fe     4 -0.2656280000000 -0.2343720000000 -0.2557750000000 1.0  -3.13
Fe     4  0.2656280000000  0.2343720000000 -0.2557750000000 1.0  -3.13
Fe     4  0.2343720000000 -0.2656280000000 -0.2557750000000 1.0  -3.13
Fe     4 -0.2343720000000  0.2656280000000 -0.2557750000000 1.0  -3.13
Fe     4 -0.0000000000000  0.5000000000000 -0.1673260000000 1.0  -3.07
Fe     4 -0.5000000000000 -0.0000000000000 -0.1673260000000 1.0  -3.07
END
