TITL LFSO-Li5FeS2O2-201026-033851-61d946 0.0204 129.676093 -3.34459139E+003 3.75165 4.18288 10 (P2) n - 1
REM
REM Run started: Mon, 26 Oct 2020 03:55:34 +0000 in /scratch/scratch/uccabz1/launch_tmp/launcher_2020-10-26-03-38-49-654086
REM CASTEP 19.11| from code version Version unavailable
REM Functional Perdew Burke Ernzerhof Relativity Koelling-Harmon Dispersion off
REM Cut-off 340.0000 eV Grid scale 1.7500 Gmax 16.5316 1/A FBSC none
REM MP grid 5 3 3 Offset 0.000 0.000 0.000 No. kpts 16 Spacing 0.07
REM Total runtime: 1164.68 s
REM Overall efficiency: 84.3333 %
REM
REM
REM
REM compiler GCC version 4.9.2
REM options -cpp -iprefix /scratch/UCL/applications/gcc/4.9.2/bin/../lib/gcc/x86_64-unknown-linux-gnu/4.9.2/ -mtune=corei7 -march=x86-64 -g -O2
REM COMMAND_LINE
REM seed -2145477243 1371412663 -776290273 23277521 -1450830273 1473707988 1051556754 727783542 1637933914 1990874676 -231261328 -662049403
REM
REM S 3|1.8|5|6|7|30:31:32(qc=5)
REM O 2|1.5|12|13|15|20:21(qc=5)
REM Li 1|1.3|8|9|10|10U:20(qc=5)
REM Fe 3|2.2|2.0|1.0|8|9|10|40:41:32(qc=5)
REM Fe d:4.0 
REM
CELL 1.54180    3.96292    5.92821    6.16132   90.00000  116.37882   90.00000
LATT -1
SFAC Li O  S  Fe 
Li     1 -0.1701240000000 -0.4803670000000  0.1313790000000 1.0  -0.04
Li     1  0.1701240000000 -0.4803670000000 -0.1313790000000 1.0  -0.04
Li     1  0.3693620000000 -0.0776880000000  0.1343730000000 1.0   0.02
Li     1 -0.3693620000000 -0.0776880000000 -0.1343730000000 1.0   0.02
Li     1  0.5000000000000 -0.1996370000000  0.5000000000000 1.0  -0.03
O      2 -0.4056270000000  0.6067810000000 -0.2284910000000 1.0   0.09
O      2  0.4056270000000  0.6067810000000  0.2284910000000 1.0   0.09
S      3 -0.0192500000000  0.1084770000000  0.2654080000000 1.0  -0.10
S      3  0.0192500000000  0.1084770000000 -0.2654080000000 1.0  -0.10
Fe     4  0.5000000000000  0.3874100000000  0.5000000000000 1.0   3.83
END
