TITL LFSO-Li2Fe3S2O2-201022-162952-02fa78 -0.0012 162.247034 -4.46644085E+003 3.93878 10.2372 9 (Amm2) n - 1
REM
REM Run started: Fri, 23 Oct 2020 01:41:27 +0100 in /lustre/scratch/uccabz1/launch_tmp/launcher_2020-10-22-17-09-29-600002
REM CASTEP 20.1 from code version af48c487+ pr-geom-scf-spinfix Tue Jun 2 15:39:59 2020 +0100
REM Functional Perdew Burke Ernzerhof Relativity Koelling-Harmon Dispersion off
REM Cut-off 340.0000 eV Grid scale 1.7500 Gmax 16.5316 1/A FBSC none
REM MP grid 6 4 1 Offset 0.000 0.000 0.000 No. kpts 11 Spacing 0.07
REM Total runtime: 31658.5 s
REM Overall efficiency: 53.6154 %
REM
REM
REM
REM compiler GCC version 4.9.2
REM options -cpp -iprefix /lustre/shared/ucl/apps/gcc/4.9.2/bin/../lib/gcc/x86_64-unknown-linux-gnu/4.9.2/ -mtune=corei7 -march=x86-64 -g -Og
REM COMMAND_LINE
REM seed -111816016 1620615598 990588729 -1750234016 -52364233 1288692656 -186626231 1333631005 2103834541 1113087723 -1137365181 326739657
REM
REM S 3|1.8|5|6|7|30:31:32(qc=5)
REM O 2|1.5|12|13|15|20:21(qc=5)
REM Li 1|1.3|8|9|10|10U:20(qc=5)
REM Fe 3|2.2|2.0|1.0|8|9|10|40:41:32(qc=5)
REM Fe d:4.0 
REM
CELL 1.54180    2.71257    4.11955   15.37658   90.00000   90.00000  109.22212
LATT -1
SFAC Li O  S  Fe 
Li     1 -0.2070080000000 -0.4140150000000 -0.1757410000000 1.0   0.01
Li     1 -0.2070080000000 -0.4140150000000  0.1757410000000 1.0   0.01
O      2  0.2913060000000  0.5826130000000 -0.0831940000000 1.0  -0.03
O      2  0.2913060000000  0.5826130000000  0.0831940000000 1.0  -0.03
S      3  0.0627130000000  0.1254260000000  0.2644940000000 1.0   0.08
S      3  0.0627130000000  0.1254260000000 -0.2644940000000 1.0   0.08
Fe     4  0.0323590000000  0.0647180000000 -0.4112840000000 1.0   3.38
Fe     4  0.0323590000000  0.0647180000000  0.4112840000000 1.0   3.38
Fe     4 -0.2127850000000 -0.4255700000000  0.0000000000000 1.0  -2.95
END
