TITL LFSO-Li6FeSO3-201028-080046-d66e78 -0.0308 376.565767 -7.35622100E+003 8.00000 8.23631 22 (C2) n - 1
REM
REM Run started: Wed, 28 Oct 2020 12:29:18 +0000 in /scratch/scratch/uccabz1/launch_tmp/launcher_2020-10-28-08-00-45-034010
REM CASTEP 19.11| from code version Version unavailable
REM Functional Perdew Burke Ernzerhof Relativity Koelling-Harmon Dispersion off
REM Cut-off 340.0000 eV Grid scale 1.7500 Gmax 16.5316 1/A FBSC none
REM MP grid 3 2 2 Offset 0.000 0.000 0.000 No. kpts 5 Spacing 0.07
REM Total runtime: 17304.4 s
REM Overall efficiency: 67.75 %
REM
REM
REM
REM compiler GCC version 4.9.2
REM options -cpp -iprefix /scratch/UCL/applications/gcc/4.9.2/bin/../lib/gcc/x86_64-unknown-linux-gnu/4.9.2/ -mtune=corei7 -march=x86-64 -g -O2
REM COMMAND_LINE
REM seed 1658985611 -980830417 362448034 -626151013 220527437 898371076 622261665 1875734046 1097260372 851904117 -678028977 -1408851166
REM
REM S 3|1.8|5|6|7|30:31:32(qc=5)
REM O 2|1.5|12|13|15|20:21(qc=5)
REM Li 1|1.3|8|9|10|10U:20(qc=5)
REM Fe 3|2.2|2.0|1.0|8|9|10|40:41:32(qc=5)
REM Fe d:4.0 
REM
CELL 1.54180    6.07117    8.32425    8.32425  103.64499  103.92360  103.92360
LATT -1
SFAC Li O  S  Fe 
Li     1 -0.0492620000000  0.2310420000000  0.5432850000000 1.0  -0.01
Li     1  0.0492620000000 -0.5432850000000 -0.2310420000000 1.0  -0.01
Li     1 -0.3584860000000 -0.1245400000000 -0.3725200000000 1.0  -0.02
Li     1  0.3584860000000  0.3725200000000  0.1245400000000 1.0  -0.02
Li     1 -0.3249470000000  0.2328680000000 -0.2108410000000 1.0  -0.04
Li     1  0.3249470000000  0.2108410000000 -0.2328680000000 1.0  -0.04
Li     1 -0.2601120000000 -0.4604240000000 -0.3849220000000 1.0  -0.01
Li     1  0.2601120000000  0.3849220000000  0.4604240000000 1.0  -0.01
Li     1 -0.0789410000000  0.0863690000000  0.2008760000000 1.0   0.00
Li     1  0.0789410000000 -0.2008760000000 -0.0863690000000 1.0   0.00
Li     1 -0.5251500000000 -0.4847120000000 -0.0996650000000 1.0   0.02
Li     1  0.5251500000000  0.0996650000000  0.4847120000000 1.0   0.02
O      2 -0.2594170000000  0.3249340000000  0.6165840000000 1.0   0.01
O      2  0.2594170000000 -0.6165840000000 -0.3249340000000 1.0   0.01
O      2 -0.1116880000000 -0.2242910000000 -0.2975860000000 1.0   0.10
O      2  0.1116880000000  0.2975860000000  0.2242910000000 1.0   0.10
O      2 -0.4227110000000  0.3452750000000 -0.0047920000000 1.0   0.10
O      2  0.4227110000000  0.0047920000000 -0.3452750000000 1.0   0.10
S      3 -0.2033380000000 -0.0644430000000  0.3748410000000 1.0   0.09
S      3  0.2033380000000 -0.3748410000000  0.0644430000000 1.0   0.09
Fe     4  0.0865610000000 -0.1172150000000  0.5797120000000 1.0   3.76
Fe     4 -0.0865610000000 -0.5797120000000  0.1172150000000 1.0   3.76
END
