TITL LFSO-Li2Fe3S3O-201025-071900-c3e6e0 0.0297 375.226409 -8.67158120E+003 24.0000 24.2142 18 (P21) n - 1
REM
REM Run started: Sun, 25 Oct 2020 16:47:47 +0000 in /scratch/scratch/uccabz1/launch_tmp/launcher_2020-10-25-07-18-58-869750
REM CASTEP 19.11| from code version Version unavailable
REM Functional Perdew Burke Ernzerhof Relativity Koelling-Harmon Dispersion off
REM Cut-off 340.0000 eV Grid scale 1.7500 Gmax 16.5316 1/A FBSC none
REM MP grid 3 3 2 Offset 0.000 0.000 0.000 No. kpts 5 Spacing 0.07
REM Total runtime: 35441.7 s
REM Overall efficiency: 76.1538 %
REM
REM
REM
REM compiler GCC version 4.9.2
REM options -cpp -iprefix /scratch/UCL/applications/gcc/4.9.2/bin/../lib/gcc/x86_64-unknown-linux-gnu/4.9.2/ -mtune=corei7 -march=x86-64 -g -O2
REM COMMAND_LINE
REM seed -520002180 126492154 1160066793 -10910396 -2122371672 1713694076 1881438767 1633530112 471078659 966589209 -841385287 483828344
REM
REM S 3|1.8|5|6|7|30:31:32(qc=5)
REM O 2|1.5|12|13|15|20:21(qc=5)
REM Li 1|1.3|8|9|10|10U:20(qc=5)
REM Fe 3|2.2|2.0|1.0|8|9|10|40:41:32(qc=5)
REM Fe d:4.0 
REM
CELL 1.54180    6.08719    6.55767   11.16586   90.00000   90.00000  122.66387
LATT -1
SFAC Li O  S  Fe 
Li     1 -0.1996700000000  0.0017280000000  0.0751260000000 1.0  -0.04
Li     1  0.1996700000000 -0.0017280000000 -0.4248740000000 1.0  -0.04
Li     1 -0.0049600000000 -0.2237740000000  0.1780250000000 1.0  -0.02
Li     1  0.0049600000000  0.2237740000000 -0.3219750000000 1.0  -0.02
O      2  0.2272850000000  0.3004980000000 -0.4555360000000 1.0   0.17
O      2 -0.2272850000000 -0.3004980000000  0.0444640000000 1.0   0.17
S      3  0.1369130000000  0.4152290000000 -0.1143420000000 1.0   0.15
S      3 -0.1369130000000 -0.4152290000000  0.3856580000000 1.0   0.15
S      3 -0.4377520000000 -0.0209800000000  0.4928980000000 1.0   0.10
S      3  0.4377520000000  0.0209800000000 -0.0071020000000 1.0   0.10
S      3  0.1601650000000  0.2065210000000  0.2297900000000 1.0   0.05
S      3 -0.1601650000000 -0.2065210000000 -0.2702100000000 1.0   0.05
Fe     4 -0.4402460000000 -0.3865890000000 -0.4534660000000 1.0   3.90
Fe     4  0.4402460000000  0.3865890000000  0.0465340000000 1.0   3.90
Fe     4 -0.5240780000000  0.2116710000000  0.3586270000000 1.0   3.80
Fe     4  0.5240780000000 -0.2116710000000 -0.1413730000000 1.0   3.80
Fe     4  0.0018340000000  0.2939370000000  0.4141370000000 1.0   3.87
Fe     4 -0.0018340000000 -0.2939370000000 -0.0858630000000 1.0   3.87
END
