TITL LFSO-Li2Fe2S2O-201022-063819-d67c8b -0.0563 270.731396 -6.33887509E+003 16.0000 16.1118 14 (P21) n - 1
REM
REM Run started: Thu, 22 Oct 2020 13:31:41 +0100 in /scratch/scratch/uccabz1/launch_tmp/launcher_2020-10-22-05-38-17-978256
REM CASTEP 19.11| from code version Version unavailable
REM Functional Perdew Burke Ernzerhof Relativity Koelling-Harmon Dispersion off
REM Cut-off 340.0000 eV Grid scale 1.7500 Gmax 16.5316 1/A FBSC none
REM MP grid 4 3 2 Offset 0.000 0.000 0.000 No. kpts 6 Spacing 0.07
REM Total runtime: 27565.6 s
REM Overall efficiency: 94.6923 %
REM
REM
REM
REM compiler GCC version 4.9.2
REM options -cpp -iprefix /scratch/UCL/applications/gcc/4.9.2/bin/../lib/gcc/x86_64-unknown-linux-gnu/4.9.2/ -mtune=corei7 -march=x86-64 -g -O2
REM COMMAND_LINE
REM seed -1770564706 1925116752 968835471 48095675 -1173401376 124915651 -427596148 208521448 846879208 1474769089 558773093 937871501
REM
REM S 3|1.8|5|6|7|30:31:32(qc=5)
REM O 2|1.5|12|13|15|20:21(qc=5)
REM Li 1|1.3|8|9|10|10U:20(qc=5)
REM Fe 3|2.2|2.0|1.0|8|9|10|40:41:32(qc=5)
REM Fe d:4.0 
REM
CELL 1.54180    3.70272    6.01689   12.17119   90.00000   90.00000   93.22326
LATT -1
SFAC Li O  S  Fe 
Li     1 -0.5416920000000  0.3904990000000  0.1363900000000 1.0  -0.04
Li     1  0.5416920000000 -0.3904990000000 -0.3636100000000 1.0  -0.04
Li     1  0.3741510000000 -0.4551500000000  0.3915600000000 1.0   0.01
Li     1 -0.3741510000000  0.4551500000000 -0.1084400000000 1.0   0.01
O      2  0.0076510000000 -0.2227070000000 -0.3397580000000 1.0   0.20
O      2 -0.0076510000000  0.2227070000000  0.1602420000000 1.0   0.20
S      3 -0.1381330000000  0.3399210000000  0.4653250000000 1.0   0.01
S      3  0.1381330000000 -0.3399210000000 -0.0346750000000 1.0   0.01
S      3 -0.5419590000000  0.2189260000000 -0.2564610000000 1.0   0.12
S      3  0.5419590000000 -0.2189260000000  0.2435390000000 1.0   0.12
Fe     4  0.0636070000000 -0.0924620000000  0.1213800000000 1.0   3.85
Fe     4 -0.0636070000000  0.0924620000000 -0.3786200000000 1.0   3.85
Fe     4 -0.1893200000000  0.1333010000000  0.3041700000000 1.0   3.84
Fe     4  0.1893200000000 -0.1333010000000 -0.1958300000000 1.0   3.84
END
