TITL LFSO-Li2Fe3S3O-201026-010419-138b93 0.0531 535.286612 -8.66738428E+003 23.9992 24.5517 18 (C2/c) n - 1
REM
REM Run started: Wed, 28 Oct 2020 03:25:08 +0000 in /scratch/scratch/uccabz1/launch_tmp/launcher_2020-10-27-23-19-41-538861
REM CASTEP 19.11| from code version Version unavailable
REM Functional Perdew Burke Ernzerhof Relativity Koelling-Harmon Dispersion off
REM Cut-off 340.0000 eV Grid scale 1.7500 Gmax 16.5316 1/A FBSC none
REM MP grid 3 3 2 Offset 0.000 0.000 0.000 No. kpts 8 Spacing 0.07
REM Total runtime: 43665.8 s
REM Overall efficiency: 84.2727 %
REM
REM
REM
REM compiler GCC version 4.9.2
REM options -cpp -iprefix /lustre/shared/ucl/apps/gcc/4.9.2/bin/../lib/gcc/x86_64-unknown-linux-gnu/4.9.2/ -mtune=corei7 -march=x86-64 -g -Og
REM COMMAND_LINE
REM seed 460511326 -773662098 498424995 725159211 -1664878608 568972682 669533714 -557414993 -1293093384 -1130612301 1569606995 496560297
REM
REM S 3|1.8|5|6|7|30:31:32(qc=5)
REM O 2|1.5|12|13|15|20:21(qc=5)
REM Li 1|1.3|8|9|10|10U:20(qc=5)
REM Fe 3|2.2|2.0|1.0|8|9|10|40:41:32(qc=5)
REM Fe d:4.0 
REM
CELL 1.54180    9.59290   11.71839    9.52246   52.02605  118.40197  140.62775
LATT -1
SFAC Li O  S  Fe 
Li     1 -0.5451190000000 -0.1905340000000  0.4678220000000 1.0  -0.02
Li     1  0.0451190000000 -0.2772880000000  0.4678220000000 1.0  -0.02
Li     1  0.5451190000000  0.1905340000000 -0.4678220000000 1.0  -0.02
Li     1 -0.0451190000000  0.2772880000000 -0.4678220000000 1.0  -0.02
O      2 -0.2500000000000  0.1774870000000 -0.3549740000000 1.0   0.13
O      2  0.2500000000000 -0.1774870000000  0.3549740000000 1.0   0.13
S      3  0.6071820000000 -0.3145920000000 -0.2733420000000 1.0   0.19
S      3 -0.1071820000000 -0.4120660000000 -0.2733420000000 1.0   0.19
S      3 -0.6071820000000  0.3145920000000  0.2733420000000 1.0   0.19
S      3  0.1071820000000  0.4120660000000  0.2733420000000 1.0   0.19
S      3 -0.2500000000000 -0.0956360000000  0.1912730000000 1.0   0.04
S      3  0.2500000000000  0.0956360000000 -0.1912730000000 1.0   0.04
Fe     4 -0.0433200000000 -0.1808810000000 -0.2587080000000 1.0   3.79
Fe     4 -0.4566800000000  0.4395890000000 -0.2587080000000 1.0   3.79
Fe     4  0.0433200000000  0.1808810000000  0.2587080000000 1.0   3.79
Fe     4  0.4566800000000 -0.4395890000000  0.2587080000000 1.0   3.79
Fe     4 -0.2500000000000  0.0568100000000 -0.1136210000000 1.0   3.92
Fe     4  0.2500000000000 -0.0568100000000  0.1136210000000 1.0   3.92
END
