TITL LFSO-Li2Fe3S2O2-201022-091206-7ee6f1 0.0381 177.194726 -4.46751475E+003 12.0000 12.2681 9 (R3m) n - 1
REM
REM Run started: Thu, 22 Oct 2020 10:23:45 +0100 in /lustre/scratch/uccabz1/launch_tmp/launcher_2020-10-22-08-12-05-068479
REM CASTEP 20.1 from code version af48c487+ pr-geom-scf-spinfix Tue Jun 2 15:39:59 2020 +0100
REM Functional Perdew Burke Ernzerhof Relativity Koelling-Harmon Dispersion off
REM Cut-off 340.0000 eV Grid scale 1.7500 Gmax 16.5316 1/A FBSC none
REM MP grid 3 3 3 Offset 0.000 0.000 0.000 No. kpts 6 Spacing 0.07
REM Total runtime: 4339.69 s
REM Overall efficiency: 91.8571 %
REM
REM
REM
REM compiler GCC version 4.9.2
REM options -cpp -iprefix /lustre/shared/ucl/apps/gcc/4.9.2/bin/../lib/gcc/x86_64-unknown-linux-gnu/4.9.2/ -mtune=corei7 -march=x86-64 -g -Og
REM COMMAND_LINE
REM seed -91400213 1019775361 1363641748 1668365553 2029239291 -1442510412 -2113469549 -233939048 1201044413 -604345795 -2007407945 -1326618555
REM
REM S 3|1.8|5|6|7|30:31:32(qc=5)
REM O 2|1.5|12|13|15|20:21(qc=5)
REM Li 1|1.3|8|9|10|10U:20(qc=5)
REM Fe 3|2.2|2.0|1.0|8|9|10|40:41:32(qc=5)
REM Fe d:4.0 
REM
CELL 1.54180    5.83295    5.83295    6.89247   64.96708   64.96708   60.00000
LATT -1
SFAC Li O  S  Fe 
Li     1 -0.0774000000000 -0.0774000000000  0.2322000000000 1.0   0.01
Li     1 -0.3428700000000 -0.3428700000000  0.0286110000000 1.0  -0.04
O      2  0.1609050000000  0.1609050000000  0.5172840000000 1.0   0.33
O      2  0.0215010000000  0.0215010000000 -0.0645030000000 1.0   0.33
S      3  0.3398830000000  0.3398830000000 -0.0196480000000 1.0   0.17
S      3 -0.4719600000000 -0.4719600000000  0.4158810000000 1.0   0.24
Fe     4  0.2560480000000  0.2564310000000 -0.2914680000000 1.0   3.65
Fe     4 -0.2210120000000  0.2560480000000 -0.2914680000000 1.0   3.65
Fe     4  0.2564310000000 -0.2210120000000 -0.2914680000000 1.0   3.65
END
