TITL LFSO-Li5FeS2O2-201025-200456-33de9e 0.3890 255.543774 -3.34470939E+003 3.00002 3.60327 10 (Cm) n - 1
REM
REM Run started: Tue, 27 Oct 2020 23:22:35 +0000 in /scratch/scratch/uccabz1/launch_tmp/launcher_2020-10-27-22-12-38-640910
REM CASTEP 19.11| from code version Version unavailable
REM Functional Perdew Burke Ernzerhof Relativity Koelling-Harmon Dispersion off
REM Cut-off 340.0000 eV Grid scale 1.7500 Gmax 16.5316 1/A FBSC none
REM MP grid 5 4 4 Offset 0.000 0.000 0.000 No. kpts 26 Spacing 0.07
REM Total runtime: 18918.8 s
REM Overall efficiency: 89.8 %
REM
REM
REM
REM compiler GCC version 4.9.2
REM options -cpp -iprefix /scratch/UCL/applications/gcc/4.9.2/bin/../lib/gcc/x86_64-unknown-linux-gnu/4.9.2/ -mtune=corei7 -march=x86-64 -g -O2
REM COMMAND_LINE
REM seed -620856456 68808093 1934524613 -1770207276 -1379007583 -826881003 -328557668 -165980149 751329405 -1890494580 1412708570 -1832118450
REM
REM S 3|1.8|5|6|7|30:31:32(qc=5)
REM O 2|1.5|12|13|15|20:21(qc=5)
REM Li 1|1.3|8|9|10|10U:20(qc=5)
REM Fe 3|2.2|2.0|1.0|8|9|10|40:41:32(qc=5)
REM Fe d:4.0 
REM
CELL 1.54180    5.81981   12.55686   12.55686  150.12079  102.34276  102.34276
LATT -1
SFAC Li O  S  Fe 
Li     1 -0.1587050000000  0.0445010000000  0.1884800000000 1.0  -0.01
Li     1 -0.1587050000000  0.1884800000000  0.0445010000000 1.0  -0.01
Li     1 -0.2373510000000 -0.2425920000000  0.5628700000000 1.0   0.01
Li     1 -0.2373510000000  0.5628700000000 -0.2425920000000 1.0   0.01
Li     1  0.2271370000000 -0.3320510000000 -0.3320510000000 1.0  -0.01
O      2  0.4201940000000  0.5311050000000 -0.3567040000000 1.0   0.01
O      2  0.4201940000000 -0.3567040000000  0.5311050000000 1.0   0.01
S      3 -0.5560100000000  0.2019140000000  0.0688810000000 1.0  -0.11
S      3 -0.5560100000000  0.0688810000000  0.2019140000000 1.0  -0.11
Fe     4  0.4390560000000  0.3932050000000  0.3932050000000 1.0   3.21
END
