TITL LFSO-Li2FeSO-201023-085240-3f92a2 -0.0387 319.803375 -8.01539865E+003 -16.0000 16.2349 20 (Cc) n - 1
REM
REM Run started: Fri, 23 Oct 2020 18:09:44 +0100 in /lustre/scratch/uccabz1/launch_tmp/launcher_2020-10-23-07-52-38-695956
REM CASTEP 20.1 from code version af48c487+ pr-geom-scf-spinfix Tue Jun 2 15:39:59 2020 +0100
REM Functional Perdew Burke Ernzerhof Relativity Koelling-Harmon Dispersion off
REM Cut-off 340.0000 eV Grid scale 1.7500 Gmax 16.5316 1/A FBSC none
REM MP grid 4 2 2 Offset 0.000 0.000 0.000 No. kpts 6 Spacing 0.07
REM Total runtime: 33801.4 s
REM Overall efficiency: 89.7692 %
REM
REM
REM
REM compiler GCC version 4.9.2
REM options -cpp -iprefix /lustre/shared/ucl/apps/gcc/4.9.2/bin/../lib/gcc/x86_64-unknown-linux-gnu/4.9.2/ -mtune=corei7 -march=x86-64 -g -Og
REM COMMAND_LINE
REM seed 1438796749 383971234 -14630346 -1185561491 -1115134962 -1804897503 -688905278 2022783900 -1431842674 -404137123 2095304130 -2018718290
REM
REM S 3|1.8|5|6|7|30:31:32(qc=5)
REM O 2|1.5|12|13|15|20:21(qc=5)
REM Li 1|1.3|8|9|10|10U:20(qc=5)
REM Fe 3|2.2|2.0|1.0|8|9|10|40:41:32(qc=5)
REM Fe d:4.0 
REM
CELL 1.54180    4.20867   10.62000   10.62000  129.93772  101.65305  101.65305
LATT -1
SFAC Li O  S  Fe 
Li     1  0.1133780000000  0.3326990000000 -0.1658370000000 1.0  -0.00
Li     1 -0.3866220000000 -0.1658370000000  0.3326990000000 1.0  -0.00
Li     1  0.1564050000000  0.0695750000000  0.1534430000000 1.0   0.01
Li     1 -0.3435950000000  0.1534430000000  0.0695750000000 1.0   0.01
Li     1  0.3427290000000  0.0538680000000 -0.4180530000000 1.0   0.03
Li     1 -0.1572710000000 -0.4180530000000  0.0538680000000 1.0   0.03
Li     1  0.3795570000000  0.5241440000000  0.1960700000000 1.0  -0.01
Li     1 -0.1204430000000  0.1960700000000  0.5241440000000 1.0  -0.01
O      2  0.3570850000000 -0.4018850000000  0.0652490000000 1.0  -0.11
O      2 -0.1429150000000  0.0652490000000 -0.4018850000000 1.0  -0.11
O      2  0.2003170000000 -0.3758260000000 -0.2777060000000 1.0  -0.23
O      2 -0.2996830000000 -0.2777060000000 -0.3758260000000 1.0  -0.23
S      3  0.0636110000000 -0.2901340000000  0.3675550000000 1.0  -0.09
S      3  0.5636110000000  0.3675550000000 -0.2901340000000 1.0  -0.09
S      3  0.1511650000000  0.1996020000000  0.0160690000000 1.0  -0.08
S      3 -0.3488350000000  0.0160690000000  0.1996020000000 1.0  -0.08
Fe     4 -0.6468840000000 -0.3093000000000 -0.0435360000000 1.0  -3.75
Fe     4 -0.1468840000000 -0.0435360000000 -0.3093000000000 1.0  -3.75
Fe     4 -0.3395190000000 -0.4216420000000 -0.3101360000000 1.0  -3.77
Fe     4  0.1604810000000 -0.3101360000000 -0.4216420000000 1.0  -3.77
END
