TITL LFSO-Li5FeS2O2-201025-163604-5729f1 -0.0530 156.901001 -3.33979164E+003 4.95307 5.06161 10 (R3) n - 1
REM
REM Run started: Sun, 25 Oct 2020 20:25:31 +0000 in /lustre/scratch/uccabz1/launch_tmp/launcher_2020-10-25-16-36-02-352206
REM CASTEP 20.1 from code version af48c487+ pr-geom-scf-spinfix Tue Jun 2 15:39:59 2020 +0100
REM Functional Perdew Burke Ernzerhof Relativity Koelling-Harmon Dispersion off
REM Cut-off 340.0000 eV Grid scale 1.7500 Gmax 16.5316 1/A FBSC none
REM MP grid 4 4 2 Offset 0.000 0.000 0.000 No. kpts 16 Spacing 0.07
REM Total runtime: 14854.5 s
REM Overall efficiency: 95.3077 %
REM
REM
REM
REM compiler GCC version 4.9.2
REM options -cpp -iprefix /lustre/shared/ucl/apps/gcc/4.9.2/bin/../lib/gcc/x86_64-unknown-linux-gnu/4.9.2/ -mtune=corei7 -march=x86-64 -g -Og
REM COMMAND_LINE
REM seed 1436787804 160979816 1205332793 -377052098 846506853 -182883435 -556506904 1636201223 -1148415823 -1040340065 761399836 -167159680
REM
REM S 3|1.8|5|6|7|30:31:32(qc=5)
REM O 2|1.5|12|13|15|20:21(qc=5)
REM Li 1|1.3|8|9|10|10U:20(qc=5)
REM Fe 3|2.2|2.0|1.0|8|9|10|40:41:32(qc=5)
REM Fe d:4.0 
REM
CELL 1.54180    4.25271    4.25271   10.31409   78.10255   78.10255   60.00000
LATT -1
SFAC Li O  S  Fe 
Li     1 -0.3005580000000  0.3034000000000 -0.1023480000000 1.0  -0.01
Li     1  0.3034000000000  0.0995060000000 -0.1023480000000 1.0  -0.01
Li     1  0.0995060000000 -0.3005580000000 -0.1023480000000 1.0  -0.01
Li     1  0.2750340000000  0.2750340000000 -0.8251010000000 1.0  -0.06
Li     1 -0.2299980000000 -0.2299980000000  0.6899940000000 1.0  -0.04
O      2  0.2133580000000  0.2133580000000 -0.6400730000000 1.0   0.16
O      2 -0.2930400000000 -0.2930400000000  0.8791200000000 1.0   0.29
S      3 -0.0329150000000 -0.0329150000000  0.0987430000000 1.0   0.15
S      3  0.4374760000000  0.4374760000000 -1.3124290000000 1.0   0.46
Fe     4 -0.1201700000000 -0.1201700000000  0.3605090000000 1.0   4.03
END
