TITL LFSO-LiFe3S4O-201028-170918-af22da -0.0112 402.523906 -8.87254700E+003 19.9821 23.2360 18 (P3) n - 1
REM
REM Run started: Wed, 28 Oct 2020 19:56:38 +0000 in /lustre/scratch/uccabz1/launch_tmp/launcher_2020-10-28-17-09-16-580543
REM CASTEP 20.1 from code version af48c487+ pr-geom-scf-spinfix Tue Jun 2 15:39:59 2020 +0100
REM Functional Perdew Burke Ernzerhof Relativity Koelling-Harmon Dispersion off
REM Cut-off 340.0000 eV Grid scale 1.7500 Gmax 16.5316 1/A FBSC none
REM MP grid 3 3 2 Offset 0.000 0.000 0.000 No. kpts 5 Spacing 0.07
REM Total runtime: 11335.8 s
REM Overall efficiency: 83.75 %
REM
REM
REM
REM compiler GCC version 4.9.2
REM options -cpp -iprefix /lustre/shared/ucl/apps/gcc/4.9.2/bin/../lib/gcc/x86_64-unknown-linux-gnu/4.9.2/ -mtune=corei7 -march=x86-64 -g -Og
REM COMMAND_LINE
REM seed 1824148259 1065902313 -131084283 1084512500 -1453677717 466825358 1108856081 -72953830 -733125085 1879492306 1005658392 -1397639189
REM
REM S 3|1.8|5|6|7|30:31:32(qc=5)
REM O 2|1.5|12|13|15|20:21(qc=5)
REM Li 1|1.3|8|9|10|10U:20(qc=5)
REM Fe 3|2.2|2.0|1.0|8|9|10|40:41:32(qc=5)
REM Fe d:4.0 
REM
CELL 1.54180    6.70874    6.70874   10.32713   90.00000   90.00000  120.00000
LATT -1
SFAC Li O  S  Fe 
Li     1 -0.3333330000000  0.3333330000000  0.4735960000000 1.0  -0.04
Li     1 -0.3333330000000  0.3333330000000  0.0764440000000 1.0  -0.06
O      2 -0.3333330000000  0.3333330000000 -0.3444470000000 1.0   0.29
O      2 -0.3333330000000  0.3333330000000 -0.1065220000000 1.0   0.24
S      3 -0.2888310000000  0.0041650000000  0.1125070000000 1.0  -0.07
S      3 -0.0041650000000 -0.2929950000000  0.1125070000000 1.0  -0.07
S      3  0.2929950000000  0.2888310000000  0.1125070000000 1.0  -0.07
S      3 -0.2784560000000  0.0061440000000  0.4146450000000 1.0  -0.26
S      3 -0.0061440000000 -0.2846000000000  0.4146450000000 1.0  -0.26
S      3  0.2846000000000  0.2784560000000  0.4146450000000 1.0  -0.26
S      3  0.3333330000000 -0.3333330000000 -0.2634620000000 1.0   0.02
S      3  0.3333330000000 -0.3333330000000  0.2839370000000 1.0  -0.57
Fe     4 -0.2342420000000 -0.2330460000000  0.2600970000000 1.0   3.23
Fe     4  0.2330460000000 -0.0011960000000  0.2600970000000 1.0   3.23
Fe     4  0.0011960000000  0.2342420000000  0.2600970000000 1.0   3.23
Fe     4  0.5030400000000  0.4438640000000 -0.2239340000000 1.0   3.81
Fe     4 -0.4438640000000  0.0591760000000 -0.2239340000000 1.0   3.81
Fe     4 -0.0591760000000 -0.5030400000000 -0.2239340000000 1.0   3.81
END
