TITL LFSO-Li4Fe3S3O2-201029-045002-33ad93 0.5646 911.830124 -1.03347462E+004 23.2004 24.2243 24 (Aem2) n - 1
REM
REM Run started: Fri, 30 Oct 2020 22:29:10 +0000 in /scratch/scratch/uccabz1/launch_tmp/launcher_2020-10-30-17-20-10-435061
REM CASTEP 19.11| from code version Version unavailable
REM Functional Perdew Burke Ernzerhof Relativity Koelling-Harmon Dispersion off
REM Cut-off 340.0000 eV Grid scale 1.7500 Gmax 16.5316 1/A FBSC none
REM MP grid 3 3 1 Offset 0.000 0.000 0.000 No. kpts 4 Spacing 0.07
REM Total runtime: 120695 s
REM Overall efficiency: 74.0769 %
REM
REM
REM
REM compiler GCC version 4.9.2
REM options -cpp -iprefix /lustre/shared/ucl/apps/gcc/4.9.2/bin/../lib/gcc/x86_64-unknown-linux-gnu/4.9.2/ -mtune=corei7 -march=x86-64 -g -Og
REM COMMAND_LINE
REM seed -120094214 1758874593 -1376909216 1176418629 815442675 2129803282 1289359367 84937435 -185098642 -649527349 2129405434 -1015961318
REM
REM S 3|1.8|5|6|7|30:31:32(qc=5)
REM O 2|1.5|12|13|15|20:21(qc=5)
REM Li 1|1.3|8|9|10|10U:20(qc=5)
REM Fe 3|2.2|2.0|1.0|8|9|10|40:41:32(qc=5)
REM Fe d:4.0 
REM
CELL 1.54180    9.17667    9.17667   16.43325   90.00000   90.00000   41.21608
LATT -1
SFAC Li O  S  Fe 
Li     1 -0.0508050000000 -0.1303790000000  0.1177800000000 1.0  -0.12
Li     1  0.1303790000000  0.0508050000000 -0.1177800000000 1.0  -0.12
Li     1 -0.3696210000000 -0.4491950000000  0.1177800000000 1.0  -0.12
Li     1  0.4491950000000  0.3696210000000 -0.1177800000000 1.0  -0.12
Li     1  0.2119080000000 -0.2058930000000  0.3917950000000 1.0  -0.03
Li     1  0.2058930000000 -0.2119080000000 -0.3917950000000 1.0  -0.03
Li     1 -0.2941070000000  0.2880920000000  0.3917950000000 1.0  -0.03
Li     1 -0.2880920000000  0.2941070000000 -0.3917950000000 1.0  -0.03
O      2 -0.0261900000000  0.0586430000000  0.3533470000000 1.0   0.18
O      2 -0.0586430000000  0.0261900000000 -0.3533470000000 1.0   0.18
O      2 -0.5586430000000 -0.4738100000000  0.3533470000000 1.0   0.18
O      2  0.4738100000000  0.5586430000000 -0.3533470000000 1.0   0.18
S      3  0.1761270000000 -0.2521680000000 -0.1362360000000 1.0  -0.01
S      3  0.2521680000000 -0.1761270000000  0.1362360000000 1.0  -0.01
S      3 -0.2478320000000  0.3238730000000 -0.1362360000000 1.0  -0.01
S      3 -0.3238730000000  0.2478320000000  0.1362360000000 1.0  -0.01
S      3 -0.5283980000000  0.0283980000000 -0.5000520000000 1.0   1.24
S      3 -0.0283980000000  0.5283980000000  0.5000520000000 1.0   1.24
Fe     4  0.4712550000000 -0.4310680000000 -0.2446040000000 1.0   3.63
Fe     4  0.4310680000000 -0.4712550000000  0.2446040000000 1.0   3.63
Fe     4 -0.0689320000000  0.0287450000000 -0.2446040000000 1.0   3.63
Fe     4 -0.0287450000000  0.0689320000000  0.2446040000000 1.0   3.63
Fe     4 -0.2651920000000  0.2651920000000  0.0000000000000 1.0   3.06
Fe     4  0.2348080000000 -0.2348080000000  0.0000000000000 1.0   3.06
END
