TITL LFSO-Li2Fe2S2O-201022-025628-fc7294 0.0345 112.215245 -3.16690810E+003 -6.00082 7.43521 7 (P3m1) n - 1
REM
REM Run started: Thu, 22 Oct 2020 05:23:12 +0100 in /lustre/scratch/uccabz1/launch_tmp/launcher_2020-10-22-01-56-27-238928
REM CASTEP 20.1 from code version af48c487+ pr-geom-scf-spinfix Tue Jun 2 15:39:59 2020 +0100
REM Functional Perdew Burke Ernzerhof Relativity Koelling-Harmon Dispersion off
REM Cut-off 340.0000 eV Grid scale 1.7500 Gmax 16.5316 1/A FBSC none
REM MP grid 6 6 2 Offset 0.000 0.000 0.000 No. kpts 21 Spacing 0.07
REM Total runtime: 8849 s
REM Overall efficiency: 89.75 %
REM
REM
REM
REM compiler GCC version 4.9.2
REM options -cpp -iprefix /lustre/shared/ucl/apps/gcc/4.9.2/bin/../lib/gcc/x86_64-unknown-linux-gnu/4.9.2/ -mtune=corei7 -march=x86-64 -g -Og
REM COMMAND_LINE
REM seed -431164457 1416767415 -602480342 -726213432 866407972 -587130600 -104476912 512699986 245277630 686768872 -55294025 -39911710
REM
REM S 3|1.8|5|6|7|30:31:32(qc=5)
REM O 2|1.5|12|13|15|20:21(qc=5)
REM Li 1|1.3|8|9|10|10U:20(qc=5)
REM Fe 3|2.2|2.0|1.0|8|9|10|40:41:32(qc=5)
REM Fe d:4.0 
REM
CELL 1.54180    3.24809    3.24809   12.28190   90.00000   90.00000  120.00000
LATT -1
SFAC Li O  S  Fe 
Li     1 -0.3333330000000  0.3333330000000 -0.3509220000000 1.0   0.19
Li     1  0.3333330000000 -0.3333330000000  0.1389170000000 1.0   0.01
O      2 -0.3333330000000  0.3333330000000  0.0696960000000 1.0  -0.08
S      3 -0.3333330000000  0.3333330000000  0.3512180000000 1.0   0.12
S      3 -0.3333330000000  0.3333330000000 -0.1629340000000 1.0   0.47
Fe     4  0.3333330000000 -0.3333330000000 -0.5421170000000 1.0  -3.11
Fe     4  0.0000000000000 -0.0000000000000 -0.0333830000000 1.0  -3.60
END
