TITL LFSO-Li4Fe3S4O-201028-200358-47134d 0.0327 681.810164 -1.00722470E+004 21.9999 22.7965 24 (R3) n - 1
REM
REM Run started: Thu, 29 Oct 2020 07:23:00 +0000 in /scratch/scratch/uccabz1/launch_tmp/launcher_2020-10-28-20-03-57-150865
REM CASTEP 19.11| from code version Version unavailable
REM Functional Perdew Burke Ernzerhof Relativity Koelling-Harmon Dispersion off
REM Cut-off 340.0000 eV Grid scale 1.7500 Gmax 16.5316 1/A FBSC none
REM MP grid 2 2 2 Offset 0.000 0.000 0.000 No. kpts 2 Spacing 0.07
REM Total runtime: 45766 s
REM Overall efficiency: 80.1667 %
REM
REM
REM
REM compiler GCC version 4.9.2
REM options -cpp -iprefix /scratch/UCL/applications/gcc/4.9.2/bin/../lib/gcc/x86_64-unknown-linux-gnu/4.9.2/ -mtune=corei7 -march=x86-64 -g -O2
REM COMMAND_LINE
REM seed 18410864 497009786 -1664444964 1975299538 -1751887925 -620244642 -781626520 -1142207135 355398167 794784681 -260463 -451802449
REM
REM S 3|1.8|5|6|7|30:31:32(qc=5)
REM O 2|1.5|12|13|15|20:21(qc=5)
REM Li 1|1.3|8|9|10|10U:20(qc=5)
REM Fe 3|2.2|2.0|1.0|8|9|10|40:41:32(qc=5)
REM Fe d:4.0 
REM
CELL 1.54180   11.10362   11.10362   11.10362   47.53593   47.53593   47.53593
LATT -1
SFAC Li O  S  Fe 
Li     1  0.4103940000000  0.0801160000000  0.1445090000000 1.0  -0.02
Li     1  0.1445090000000  0.4103940000000  0.0801160000000 1.0  -0.02
Li     1  0.0801160000000  0.1445090000000  0.4103940000000 1.0  -0.02
Li     1  0.1925930000000  0.2063730000000 -0.1891300000000 1.0  -0.01
Li     1 -0.1891300000000  0.1925930000000  0.2063730000000 1.0  -0.01
Li     1  0.2063730000000 -0.1891300000000  0.1925930000000 1.0  -0.01
Li     1 -0.2752400000000 -0.2752400000000 -0.2752400000000 1.0  -0.07
Li     1 -0.3894200000000 -0.3894200000000 -0.3894200000000 1.0  -0.05
O      2  0.1756340000000  0.1756340000000  0.1756340000000 1.0   0.01
O      2 -0.3306750000000 -0.3306750000000 -0.3306750000000 1.0   0.20
S      3 -0.0961420000000  0.4734760000000  0.3573110000000 1.0   0.06
S      3  0.3573110000000 -0.0961420000000  0.4734760000000 1.0   0.06
S      3  0.4734760000000  0.3573110000000 -0.0961420000000 1.0   0.06
S      3 -0.2374860000000  0.0178040000000  0.2121310000000 1.0   0.16
S      3  0.2121310000000 -0.2374860000000  0.0178040000000 1.0   0.16
S      3  0.0178040000000  0.2121310000000 -0.2374860000000 1.0   0.16
S      3  0.1174910000000  0.1174910000000  0.1174910000000 1.0   0.01
S      3  0.3690030000000  0.3690030000000  0.3690030000000 1.0   0.10
Fe     4  0.2161880000000 -0.0590820000000 -0.2700970000000 1.0   3.59
Fe     4 -0.2700970000000  0.2161880000000 -0.0590820000000 1.0   3.59
Fe     4 -0.0590820000000 -0.2700970000000  0.2161880000000 1.0   3.59
Fe     4  0.4009190000000 -0.5426820000000  0.0860050000000 1.0   3.49
Fe     4  0.0860050000000  0.4009190000000 -0.5426820000000 1.0   3.49
Fe     4 -0.5426820000000  0.0860050000000  0.4009190000000 1.0   3.49
END
