TITL LFSO-Li2Fe2S2O-201021-231629-c5f037 -0.0176 120.824622 -3.16864497E+003 -8.00344 8.16635 7 (R3m) n - 1
REM
REM Run started: Thu, 22 Oct 2020 00:27:37 +0100 in /scratch/scratch/uccabz1/launch_tmp/launcher_2020-10-21-22-16-28-173244
REM CASTEP 19.11| from code version Version unavailable
REM Functional Perdew Burke Ernzerhof Relativity Koelling-Harmon Dispersion off
REM Cut-off 340.0000 eV Grid scale 1.7500 Gmax 16.5316 1/A FBSC none
REM MP grid 5 5 2 Offset 0.000 0.000 0.000 No. kpts 15 Spacing 0.07
REM Total runtime: 4835.28 s
REM Overall efficiency: 81.4286 %
REM
REM
REM
REM compiler GCC version 4.9.2
REM options -cpp -iprefix /scratch/UCL/applications/gcc/4.9.2/bin/../lib/gcc/x86_64-unknown-linux-gnu/4.9.2/ -mtune=corei7 -march=x86-64 -g -O2
REM COMMAND_LINE
REM seed 620676592 -213463243 2130496904 -1254800100 -300891309 1000503649 891388147 -99023605 -1571568352 -832486943 668228954 -231360640
REM
REM S 3|1.8|5|6|7|30:31:32(qc=5)
REM O 2|1.5|12|13|15|20:21(qc=5)
REM Li 1|1.3|8|9|10|10U:20(qc=5)
REM Fe 3|2.2|2.0|1.0|8|9|10|40:41:32(qc=5)
REM Fe d:4.0 
REM
CELL 1.54180    3.78719    3.78719    9.96998   79.05130   79.05130   60.00000
LATT -1
SFAC Li O  S  Fe 
Li     1  0.1015900000000  0.1015900000000 -0.3047690000000 1.0   0.04
Li     1 -0.2934250000000 -0.2934250000000 -0.1197260000000 1.0   0.02
O      2 -0.1460890000000 -0.1460890000000 -0.5617340000000 1.0  -0.11
S      3  0.2954630000000  0.2954630000000  0.1136120000000 1.0  -0.11
S      3  0.4170970000000  0.4170970000000 -0.2512910000000 1.0   0.00
Fe     4 -0.0700180000000 -0.0700180000000  0.2100530000000 1.0  -3.89
Fe     4 -0.4904230000000 -0.4904230000000  0.4712680000000 1.0  -3.96
END
