TITL LFSO-Li2Fe4S3O2-201025-061908-57dca6 0.5692 436.101027 -1.12623094E+004 -29.5105 31.8403 22 (R3) n - 1
REM
REM Run started: Wed, 28 Oct 2020 01:19:14 +0000 in /scratch/scratch/uccabz1/launch_tmp/launcher_2020-10-28-00-18-47-091797
REM CASTEP 19.11| from code version Version unavailable
REM Functional Perdew Burke Ernzerhof Relativity Koelling-Harmon Dispersion off
REM Cut-off 340.0000 eV Grid scale 1.7500 Gmax 16.5316 1/A FBSC none
REM MP grid 3 3 2 Offset 0.000 0.000 0.000 No. kpts 7 Spacing 0.07
REM Total runtime: 153018 s
REM Overall efficiency: 97.9091 %
REM
REM
REM
REM compiler GCC version 4.9.2
REM options -cpp -iprefix /lustre/shared/ucl/apps/gcc/4.9.2/bin/../lib/gcc/x86_64-unknown-linux-gnu/4.9.2/ -mtune=corei7 -march=x86-64 -g -Og
REM COMMAND_LINE
REM seed -1021947815 1779229896 1647787150 1798953456 1630514277 2120295824 -841854562 1609432966 -963822425 39447212 -325737531 1029884248
REM
REM S 3|1.8|5|6|7|30:31:32(qc=5)
REM O 2|1.5|12|13|15|20:21(qc=5)
REM Li 1|1.3|8|9|10|10U:20(qc=5)
REM Fe 3|2.2|2.0|1.0|8|9|10|40:41:32(qc=5)
REM Fe d:4.0 
REM
CELL 1.54180    6.74550    6.74550   11.73220   73.29297   73.29297   60.00000
LATT -1
SFAC Li O  S  Fe 
Li     1 -0.2395540000000 -0.2395540000000  0.7186600000000 1.0  -0.02
Li     1 -0.3484370000000 -0.3484370000000  1.0453110000000 1.0  -0.03
Li     1  0.3716870000000  0.3716870000000 -1.1150630000000 1.0  -0.00
Li     1  0.0471950000000  0.0471950000000 -0.1415870000000 1.0   0.14
O      2 -0.1588440000000  0.4187210000000 -0.3803240000000 1.0  -0.28
O      2  0.4187210000000  0.1204460000000 -0.3803240000000 1.0  -0.28
O      2  0.1204460000000 -0.1588440000000 -0.3803240000000 1.0  -0.28
O      2 -0.2942050000000 -0.2942050000000  0.8826140000000 1.0   0.92
S      3  0.2933070000000  0.0413820000000  0.0166740000000 1.0  -0.06
S      3  0.0413820000000 -0.3513640000000  0.0166740000000 1.0  -0.06
S      3 -0.3513640000000  0.2933070000000  0.0166740000000 1.0  -0.06
S      3 -0.4407980000000 -0.1523460000000  0.3491890000000 1.0  -0.17
S      3 -0.1523460000000  0.2439550000000  0.3491890000000 1.0  -0.17
S      3  0.2439550000000 -0.4407980000000  0.3491890000000 1.0  -0.17
Fe     4  0.1415020000000 -0.0876060000000 -0.5490510000000 1.0  -3.59
Fe     4 -0.0876060000000  0.4951530000000 -0.5490510000000 1.0  -3.59
Fe     4  0.4951530000000  0.1415020000000 -0.5490510000000 1.0  -3.59
Fe     4  0.4977450000000  0.4977450000000 -1.4932370000000 1.0  -3.64
Fe     4 -0.0241020000000 -0.0241020000000  0.0723040000000 1.0  -3.69
Fe     4  0.1225730000000  0.1225730000000 -0.3677210000000 1.0  -3.75
Fe     4 -0.1060020000000 -0.1060020000000  0.3180060000000 1.0  -3.29
Fe     4  0.2910480000000  0.2910480000000 -0.8731450000000 1.0  -3.85
END
