TITL LFSO-Li2Fe2S2O-201022-011103-cd8314 -0.0100 434.773043 -9.50927026E+003 24.0000 24.3199 21 (P31) n - 1
REM
REM Run started: Thu, 22 Oct 2020 09:50:26 +0100 in /lustre/scratch/uccabz1/launch_tmp/launcher_2020-10-22-00-11-01-479896
REM CASTEP 20.1 from code version af48c487+ pr-geom-scf-spinfix Tue Jun 2 15:39:59 2020 +0100
REM Functional Perdew Burke Ernzerhof Relativity Koelling-Harmon Dispersion off
REM Cut-off 340.0000 eV Grid scale 1.7500 Gmax 16.5316 1/A FBSC none
REM MP grid 3 3 2 Offset 0.000 0.000 0.000 No. kpts 5 Spacing 0.07
REM Total runtime: 33004.6 s
REM Overall efficiency: 75.5833 %
REM
REM
REM
REM compiler GCC version 4.9.2
REM options -cpp -iprefix /lustre/shared/ucl/apps/gcc/4.9.2/bin/../lib/gcc/x86_64-unknown-linux-gnu/4.9.2/ -mtune=corei7 -march=x86-64 -g -Og
REM COMMAND_LINE
REM seed -955497616 -1162052531 -2027150491 -62795897 1289356687 838923837 -2045223154 1056014787 2036878262 1317500723 -848512339 -831728269
REM
REM S 3|1.8|5|6|7|30:31:32(qc=5)
REM O 2|1.5|12|13|15|20:21(qc=5)
REM Li 1|1.3|8|9|10|10U:20(qc=5)
REM Fe 3|2.2|2.0|1.0|8|9|10|40:41:32(qc=5)
REM Fe d:4.0 
REM
CELL 1.54180    6.18094    6.18094   13.14082   90.00000   90.00000  120.00000
LATT -1
SFAC Li O  S  Fe 
Li     1 -0.1180710000000 -0.3965460000000 -0.0324570000000 1.0  -0.07
Li     1  0.7215250000000  0.1180710000000 -0.3657900000000 1.0  -0.07
Li     1  0.3965460000000 -0.7215250000000  0.3008760000000 1.0  -0.07
Li     1 -0.4477700000000 -0.2690720000000 -0.2151800000000 1.0  -0.00
Li     1  0.1786970000000  0.4477700000000  0.4514870000000 1.0  -0.00
Li     1  0.2690720000000 -0.1786970000000  0.1181540000000 1.0  -0.00
O      2 -0.0054100000000 -0.1314360000000  0.0702300000000 1.0   0.18
O      2 -0.1260270000000  0.0054100000000 -0.2631030000000 1.0   0.18
O      2  0.1314360000000  0.1260270000000  0.4035640000000 1.0   0.18
S      3 -0.3136910000000  0.4123690000000 -0.2083370000000 1.0   0.23
S      3 -0.2739400000000  0.3136910000000 -0.5416710000000 1.0   0.23
S      3 -0.4123690000000  0.2739400000000  0.1249960000000 1.0   0.23
S      3  0.4456070000000 -0.2943780000000  0.2812020000000 1.0   0.09
S      3  0.2600150000000 -0.4456070000000 -0.0521310000000 1.0   0.09
S      3  0.2943780000000 -0.2600150000000 -0.3854640000000 1.0   0.09
Fe     4 -0.0196640000000  0.2871900000000 -0.1744300000000 1.0   3.78
Fe     4  0.3068540000000  0.0196640000000  0.4922360000000 1.0   3.78
Fe     4 -0.2871900000000 -0.3068540000000  0.1589030000000 1.0   3.78
Fe     4 -0.2164340000000  0.0065710000000  0.3750370000000 1.0   3.79
Fe     4  0.2230050000000  0.2164340000000  0.0417040000000 1.0   3.79
Fe     4 -0.0065710000000 -0.2230050000000 -0.2916290000000 1.0   3.79
END
