TITL LFSO-Li2Fe2S2O-201023-164755-b59daf -0.0156 226.984867 -3.16903305E+003 8.00000 8.11340 7 (Pm) n - 1
REM
REM Run started: Fri, 23 Oct 2020 18:04:52 +0100 in /lustre/scratch/uccabz1/launch_tmp/launcher_2020-10-23-15-47-53-388150
REM CASTEP 20.1 from code version af48c487+ pr-geom-scf-spinfix Tue Jun 2 15:39:59 2020 +0100
REM Functional Perdew Burke Ernzerhof Relativity Koelling-Harmon Dispersion off
REM Cut-off 340.0000 eV Grid scale 1.7500 Gmax 16.5316 1/A FBSC none
REM MP grid 5 4 1 Offset 0.000 0.000 0.000 No. kpts 10 Spacing 0.07
REM Total runtime: 5160.9 s
REM Overall efficiency: 79.8333 %
REM
REM
REM
REM compiler GCC version 4.9.2
REM options -cpp -iprefix /lustre/shared/ucl/apps/gcc/4.9.2/bin/../lib/gcc/x86_64-unknown-linux-gnu/4.9.2/ -mtune=corei7 -march=x86-64 -g -Og
REM COMMAND_LINE
REM seed -986700609 -385146813 -1204317687 21269308 466994443 1497160294 -2064681145 6036384 -2022287404 -1525727639 1243769930 -575347723
REM
REM S 3|1.8|5|6|7|30:31:32(qc=5)
REM O 2|1.5|12|13|15|20:21(qc=5)
REM Li 1|1.3|8|9|10|10U:20(qc=5)
REM Fe 3|2.2|2.0|1.0|8|9|10|40:41:32(qc=5)
REM Fe d:4.0 
REM
CELL 1.54180    3.70626    4.48529   15.72422   90.00000   90.00000   60.26908
LATT -1
SFAC Li O  S  Fe 
Li     1 -0.1166200000000  0.3078320000000 -0.2492320000000 1.0  -0.01
Li     1 -0.1166200000000  0.3078320000000  0.2492320000000 1.0  -0.01
O      2 -0.3416170000000 -0.1382340000000  0.5000000000000 1.0   0.28
S      3  0.1648790000000  0.7153910000000  0.2868220000000 1.0   0.07
S      3  0.1648790000000  0.7153910000000 -0.2868220000000 1.0   0.07
Fe     4 -0.3920820000000 -0.1919120000000 -0.3863230000000 1.0   3.80
Fe     4 -0.3920820000000 -0.1919120000000  0.3863230000000 1.0   3.80
END
