TITL LFSO-Li2FeSO-201025-072746-f7fd8c 0.0407 245.995380 -6.01215057E+003 12.0000 12.1291 15 (Cm) n - 1
REM
REM Run started: Sun, 25 Oct 2020 16:05:43 +0000 in /lustre/scratch/uccabz1/launch_tmp/launcher_2020-10-25-07-27-44-417162
REM CASTEP 20.1 from code version af48c487+ pr-geom-scf-spinfix Tue Jun 2 15:39:59 2020 +0100
REM Functional Perdew Burke Ernzerhof Relativity Koelling-Harmon Dispersion off
REM Cut-off 340.0000 eV Grid scale 1.7500 Gmax 16.5316 1/A FBSC none
REM MP grid 8 2 2 Offset 0.000 0.000 0.000 No. kpts 12 Spacing 0.07
REM Total runtime: 36096.5 s
REM Overall efficiency: 78.75 %
REM
REM
REM
REM compiler GCC version 4.9.2
REM options -cpp -iprefix /lustre/shared/ucl/apps/gcc/4.9.2/bin/../lib/gcc/x86_64-unknown-linux-gnu/4.9.2/ -mtune=corei7 -march=x86-64 -g -Og
REM COMMAND_LINE
REM seed -1289258326 -421674422 1046627106 -2127062587 1955047029 -1165155270 388722923 67291855 167754069 856354351 -2074079440 437925319
REM
REM S 3|1.8|5|6|7|30:31:32(qc=5)
REM O 2|1.5|12|13|15|20:21(qc=5)
REM Li 1|1.3|8|9|10|10U:20(qc=5)
REM Fe 3|2.2|2.0|1.0|8|9|10|40:41:32(qc=5)
REM Fe d:4.0 
REM
CELL 1.54180    3.99349   11.79672   11.79672   77.00115   45.79824   45.79824
LATT -1
SFAC Li O  S  Fe 
Li     1 -0.1922520000000 -0.3827370000000  0.4548320000000 1.0  -0.03
Li     1 -0.1922520000000  0.4548320000000 -0.3827370000000 1.0  -0.03
Li     1 -0.2987910000000 -0.1365990000000  0.1886500000000 1.0  -0.05
Li     1 -0.2987910000000  0.1886500000000 -0.1365990000000 1.0  -0.05
Li     1 -0.5425990000000  0.4135210000000  0.0121530000000 1.0   0.00
Li     1 -0.5425990000000  0.0121530000000  0.4135210000000 1.0   0.00
O      2  0.1617060000000 -0.0875580000000  0.1596440000000 1.0   0.14
O      2  0.1617060000000  0.1596440000000 -0.0875580000000 1.0   0.14
O      2 -0.4656910000000 -0.3315130000000 -0.3315130000000 1.0   0.14
S      3  0.9128130000000 -0.0714480000000 -0.4776170000000 1.0   0.08
S      3  0.9128130000000 -0.4776170000000 -0.0714480000000 1.0   0.08
S      3  0.5253160000000  0.3094630000000  0.3094630000000 1.0   0.08
Fe     4 -0.8987770000000 -0.0908970000000 -0.3001680000000 1.0   3.82
Fe     4 -0.8987770000000 -0.3001680000000 -0.0908970000000 1.0   3.82
Fe     4  0.6967000000000  0.1465800000000  0.1465800000000 1.0   3.86
END
