TITL LFSO-Li2Fe3S2O2-201022-081013-e92bda 0.1394 180.213267 -4.45967368E+003 -9.81531 10.1019 9 (Pmm2) n - 1
REM
REM Run started: Thu, 22 Oct 2020 13:15:13 +0100 in /lustre/scratch/uccabz1/launch_tmp/launcher_2020-10-22-07-10-11-361496
REM CASTEP 20.1 from code version af48c487+ pr-geom-scf-spinfix Tue Jun 2 15:39:59 2020 +0100
REM Functional Perdew Burke Ernzerhof Relativity Koelling-Harmon Dispersion off
REM Cut-off 340.0000 eV Grid scale 1.7500 Gmax 16.5316 1/A FBSC none
REM MP grid 5 2 3 Offset 0.000 0.000 0.000 No. kpts 6 Spacing 0.07
REM Total runtime: 18580.7 s
REM Overall efficiency: 86.6154 %
REM
REM
REM
REM compiler GCC version 4.9.2
REM options -cpp -iprefix /lustre/shared/ucl/apps/gcc/4.9.2/bin/../lib/gcc/x86_64-unknown-linux-gnu/4.9.2/ -mtune=corei7 -march=x86-64 -g -Og
REM COMMAND_LINE
REM seed -2066457930 -2089543159 262662501 -1304758810 -1473029585 1591403668 1256904212 983416395 -487869665 421775079 -1639157004 -1232702923
REM
REM S 3|1.8|5|6|7|30:31:32(qc=5)
REM O 2|1.5|12|13|15|20:21(qc=5)
REM Li 1|1.3|8|9|10|10U:20(qc=5)
REM Fe 3|2.2|2.0|1.0|8|9|10|40:41:32(qc=5)
REM Fe d:4.0 
REM
CELL 1.54180    3.31760    7.83632    6.93188   90.00000   90.00000   90.00000
LATT -1
SFAC Li O  S  Fe 
Li     1 -0.5000000000000  0.2491000000000 -0.1208110000000 1.0   0.13
Li     1  0.5000000000000 -0.2491000000000 -0.1208110000000 1.0   0.13
O      2 -0.5000000000000  0.2229970000000 -0.3884500000000 1.0  -0.01
O      2 -0.5000000000000 -0.2229970000000 -0.3884500000000 1.0  -0.01
S      3 -0.0000000000000  0.2880480000000  0.5340280000000 1.0  -0.01
S      3  0.0000000000000 -0.2880480000000  0.5340280000000 1.0  -0.01
Fe     4 -0.0000000000000  0.1749690000000  0.2129170000000 1.0  -3.36
Fe     4  0.0000000000000 -0.1749690000000  0.2129170000000 1.0  -3.36
Fe     4  0.0000000000000 -0.5000000000000  0.0877090000000 1.0  -3.32
END
