TITL LFSO-Li4Fe3S3O2-201028-224211-4caf13 0.0086 239.775160 -5.17005114E+003 11.3207 11.4948 12 (F222) n - 1
REM
REM Run started: Thu, 29 Oct 2020 00:07:31 +0000 in /lustre/scratch/uccabz1/launch_tmp/launcher_2020-10-28-22-42-08-733539
REM CASTEP 20.1 from code version af48c487+ pr-geom-scf-spinfix Tue Jun 2 15:39:59 2020 +0100
REM Functional Perdew Burke Ernzerhof Relativity Koelling-Harmon Dispersion off
REM Cut-off 340.0000 eV Grid scale 1.7500 Gmax 16.5316 1/A FBSC none
REM MP grid 3 3 3 Offset 0.000 0.000 0.000 No. kpts 8 Spacing 0.07
REM Total runtime: 5651.66 s
REM Overall efficiency: 92.3333 %
REM
REM
REM
REM compiler GCC version 4.9.2
REM options -cpp -iprefix /lustre/shared/ucl/apps/gcc/4.9.2/bin/../lib/gcc/x86_64-unknown-linux-gnu/4.9.2/ -mtune=corei7 -march=x86-64 -g -Og
REM COMMAND_LINE
REM seed -1795502412 1655275724 -1406947803 -1972038515 694533583 1184302546 511199285 218577519 -1578173145 1033477740 1174677598 1510698910
REM
REM S 3|1.8|5|6|7|30:31:32(qc=5)
REM O 2|1.5|12|13|15|20:21(qc=5)
REM Li 1|1.3|8|9|10|10U:20(qc=5)
REM Fe 3|2.2|2.0|1.0|8|9|10|40:41:32(qc=5)
REM Fe d:4.0 
REM
CELL 1.54180    7.12645    7.12645    6.46544  110.06339  110.06339  112.18025
LATT -1
SFAC Li O  S  Fe 
Li     1 -0.0662800000000 -0.2822880000000 -0.4558670000000 1.0  -0.04
Li     1 -0.3895870000000 -0.1735790000000 -0.4558670000000 1.0  -0.04
Li     1  0.2822880000000  0.0662800000000  0.4558670000000 1.0  -0.04
Li     1  0.1735790000000  0.3895870000000  0.4558670000000 1.0  -0.04
O      2 -0.3521210000000 -0.3521210000000 -0.7042410000000 1.0   0.14
O      2  0.3521210000000  0.3521210000000  0.7042410000000 1.0   0.14
S      3 -0.0327300000000 -0.5327300000000 -0.0654610000000 1.0   0.03
S      3 -0.4672700000000  0.0327300000000  0.0654610000000 1.0   0.03
S      3  0.2500000000000 -0.2500000000000 -0.5000000000000 1.0   0.18
Fe     4  0.3828290000000  0.6171710000000  1.0000000000000 1.0   3.86
Fe     4 -0.3828290000000 -0.6171710000000 -1.0000000000000 1.0   3.86
Fe     4 -0.2500000000000  0.2500000000000  0.5000000000000 1.0   3.26
END
