TITL LFSO-Li4Fe3S4O-201029-203302-4023d0 -0.2434 622.008037 -1.00754506E+004 24.0000 24.2906 24 (P222) n - 1
REM
REM Run started: Fri, 30 Oct 2020 17:31:35 +0000 in /lustre/scratch/uccabz1/launch_tmp/launcher_2020-10-29-20-33-01-259162
REM CASTEP 20.1 from code version af48c487+ pr-geom-scf-spinfix Tue Jun 2 15:39:59 2020 +0100
REM Functional Perdew Burke Ernzerhof Relativity Koelling-Harmon Dispersion off
REM Cut-off 340.0000 eV Grid scale 1.7500 Gmax 16.5316 1/A FBSC none
REM MP grid 4 2 2 Offset 0.000 0.000 0.000 No. kpts 2 Spacing 0.07
REM Total runtime: 78478.8 s
REM Overall efficiency: 78.75 %
REM
REM
REM
REM compiler GCC version 4.9.2
REM options -cpp -iprefix /lustre/shared/ucl/apps/gcc/4.9.2/bin/../lib/gcc/x86_64-unknown-linux-gnu/4.9.2/ -mtune=corei7 -march=x86-64 -g -Og
REM COMMAND_LINE
REM seed 136270705 -255604995 102265239 -780767261 499803490 -1761624561 -615984414 1266387010 543989849 591145123 781956974 1497962198
REM
REM S 3|1.8|5|6|7|30:31:32(qc=5)
REM O 2|1.5|12|13|15|20:21(qc=5)
REM Li 1|1.3|8|9|10|10U:20(qc=5)
REM Fe 3|2.2|2.0|1.0|8|9|10|40:41:32(qc=5)
REM Fe d:4.0 
REM
CELL 1.54180    3.87690   13.92823   11.51903   90.00000   90.00000   90.00000
LATT -1
SFAC Li O  S  Fe 
Li     1  0.2308910000000  0.0751040000000 -0.1699870000000 1.0   0.02
Li     1 -0.2308910000000 -0.0751040000000 -0.1699870000000 1.0   0.02
Li     1 -0.2308910000000  0.0751040000000  0.1699870000000 1.0   0.02
Li     1  0.2308910000000 -0.0751040000000  0.1699870000000 1.0   0.02
Li     1  0.2231440000000  0.2699700000000 -0.1916510000000 1.0  -0.03
Li     1 -0.2231440000000 -0.2699700000000 -0.1916510000000 1.0  -0.03
Li     1 -0.2231440000000  0.2699700000000  0.1916510000000 1.0  -0.03
Li     1  0.2231440000000 -0.2699700000000  0.1916510000000 1.0  -0.03
O      2 -0.5000000000000 -0.1794090000000 -0.5000000000000 1.0   0.27
O      2 -0.5000000000000  0.1794090000000 -0.5000000000000 1.0   0.27
S      3 -0.2666090000000 -0.1557240000000  0.1813940000000 1.0   0.04
S      3  0.2666090000000  0.1557240000000  0.1813940000000 1.0   0.04
S      3  0.2666090000000 -0.1557240000000 -0.1813940000000 1.0   0.04
S      3 -0.2666090000000  0.1557240000000 -0.1813940000000 1.0   0.04
S      3  0.0176500000000 -0.3827120000000 -0.3264540000000 1.0   0.11
S      3 -0.0176500000000  0.3827120000000 -0.3264540000000 1.0   0.11
S      3 -0.0176500000000 -0.3827120000000  0.3264540000000 1.0   0.11
S      3  0.0176500000000  0.3827120000000  0.3264540000000 1.0   0.11
Fe     4 -0.2474570000000  0.2260910000000 -0.3770870000000 1.0   3.81
Fe     4  0.2474570000000 -0.2260910000000 -0.3770870000000 1.0   3.81
Fe     4  0.2474570000000  0.2260910000000  0.3770870000000 1.0   3.81
Fe     4 -0.2474570000000 -0.2260910000000  0.3770870000000 1.0   3.81
Fe     4 -0.5000000000000 -0.5000000000000  0.3435930000000 1.0   3.85
Fe     4  0.5000000000000  0.5000000000000 -0.3435930000000 1.0   3.85
END
