TITL LFSO-Li4Fe2S3O-201026-043539-3e349b -0.0036 362.529975 -7.74607235E+003 16.0000 16.3075 20 (R3) n - 1
REM
REM Run started: Mon, 26 Oct 2020 11:21:20 +0000 in /scratch/scratch/uccabz1/launch_tmp/launcher_2020-10-26-04-35-37-769124
REM CASTEP 19.11| from code version Version unavailable
REM Functional Perdew Burke Ernzerhof Relativity Koelling-Harmon Dispersion off
REM Cut-off 340.0000 eV Grid scale 1.7500 Gmax 16.5316 1/A FBSC none
REM MP grid 3 3 2 Offset 0.000 0.000 0.000 No. kpts 7 Spacing 0.07
REM Total runtime: 26476.5 s
REM Overall efficiency: 76.5 %
REM
REM
REM
REM compiler GCC version 4.9.2
REM options -cpp -iprefix /scratch/UCL/applications/gcc/4.9.2/bin/../lib/gcc/x86_64-unknown-linux-gnu/4.9.2/ -mtune=corei7 -march=x86-64 -g -O2
REM COMMAND_LINE
REM seed 292388937 1832368123 -1420857083 1855918186 -1524353703 -46321472 1264009513 13133302 -18002507 47834196 -2000800367 -861343124
REM
REM S 3|1.8|5|6|7|30:31:32(qc=5)
REM O 2|1.5|12|13|15|20:21(qc=5)
REM Li 1|1.3|8|9|10|10U:20(qc=5)
REM Fe 3|2.2|2.0|1.0|8|9|10|40:41:32(qc=5)
REM Fe d:4.0 
REM
CELL 1.54180    7.51950    7.51950    8.58248   64.01900   64.01900   60.00000
LATT -1
SFAC Li O  S  Fe 
Li     1 -0.2703070000000 -0.3719030000000  0.2649160000000 1.0  -0.03
Li     1 -0.3719030000000  0.3772940000000  0.2649160000000 1.0  -0.03
Li     1  0.3772940000000 -0.2703070000000  0.2649160000000 1.0  -0.03
Li     1 -0.3006520000000  0.2931170000000  0.5724210000000 1.0  -0.01
Li     1  0.2931170000000  0.4351140000000  0.5724210000000 1.0  -0.01
Li     1  0.4351140000000 -0.3006520000000  0.5724210000000 1.0  -0.01
Li     1  0.0258860000000  0.0258860000000 -0.0776590000000 1.0  -0.04
Li     1 -0.2786990000000 -0.2786990000000  0.8360960000000 1.0  -0.03
O      2 -0.4826690000000 -0.4826690000000  0.4480080000000 1.0   0.02
O      2 -0.3579790000000 -0.3579790000000  0.0739380000000 1.0   0.13
S      3  0.1204070000000 -0.2943620000000 -0.1630140000000 1.0   0.13
S      3 -0.2943620000000  0.3369690000000 -0.1630140000000 1.0   0.13
S      3  0.3369690000000  0.1204070000000 -0.1630140000000 1.0   0.13
S      3  0.5715910000000 -0.0154560000000 -0.6944690000000 1.0   0.16
S      3 -0.0154560000000  0.1383350000000 -0.6944690000000 1.0   0.16
S      3  0.1383350000000  0.5715910000000 -0.6944690000000 1.0   0.16
Fe     4  0.0610610000000  0.3765420000000  0.0094790000000 1.0   3.82
Fe     4  0.3765420000000 -0.4470830000000  0.0094790000000 1.0   3.82
Fe     4 -0.4470830000000  0.0610610000000  0.0094790000000 1.0   3.82
Fe     4  0.2232150000000  0.2232150000000 -0.6696460000000 1.0   3.72
END
