TITL LFSO-Li6FeS3O-201027-154931-822994 0.0256 398.385220 -6.81712609E+003 7.72369 7.96869 22 (Aem2) n - 1
REM
REM Run started: Wed, 28 Oct 2020 00:30:09 +0000 in /lustre/scratch/uccabz1/launch_tmp/launcher_2020-10-27-15-49-29-903036
REM CASTEP 20.1 from code version af48c487+ pr-geom-scf-spinfix Tue Jun 2 15:39:59 2020 +0100
REM Functional Perdew Burke Ernzerhof Relativity Koelling-Harmon Dispersion off
REM Cut-off 340.0000 eV Grid scale 1.7500 Gmax 16.5316 1/A FBSC none
REM MP grid 5 2 2 Offset 0.000 0.000 0.000 No. kpts 6 Spacing 0.07
REM Total runtime: 34240.7 s
REM Overall efficiency: 97.9 %
REM
REM
REM
REM compiler GCC version 4.9.2
REM options -cpp -iprefix /lustre/shared/ucl/apps/gcc/4.9.2/bin/../lib/gcc/x86_64-unknown-linux-gnu/4.9.2/ -mtune=corei7 -march=x86-64 -g -Og
REM COMMAND_LINE
REM seed -1456521082 2060995702 527637892 377940931 1939476249 1440024163 -1550568666 677563177 357230333 342351471 1188760208 -196642134
REM
REM S 3|1.8|5|6|7|30:31:32(qc=5)
REM O 2|1.5|12|13|15|20:21(qc=5)
REM Li 1|1.3|8|9|10|10U:20(qc=5)
REM Fe 3|2.2|2.0|1.0|8|9|10|40:41:32(qc=5)
REM Fe d:4.0 
REM
CELL 1.54180    3.37533   13.75387   10.99700  128.70766   90.00000   90.00000
LATT -1
SFAC Li O  S  Fe 
Li     1  0.0675810000000  0.1020310000000 -0.0589050000000 1.0  -0.00
Li     1 -0.0675810000000 -0.1609370000000 -0.0589050000000 1.0  -0.00
Li     1  0.0675810000000  0.3390630000000 -0.0589050000000 1.0  -0.00
Li     1 -0.0675810000000 -0.3979690000000 -0.0589050000000 1.0  -0.00
Li     1  0.4284360000000 -0.4650780000000 -0.2758630000000 1.0  -0.02
Li     1 -0.4284360000000  0.1892150000000 -0.2758630000000 1.0  -0.02
Li     1  0.4284360000000 -0.3107850000000 -0.2758630000000 1.0  -0.02
Li     1 -0.4284360000000  0.0349220000000 -0.2758630000000 1.0  -0.02
Li     1  0.0229700000000  0.5313850000000  0.2489340000000 1.0  -0.02
Li     1 -0.0229700000000 -0.2824510000000  0.2489340000000 1.0  -0.02
Li     1  0.0229700000000  0.2175490000000  0.2489340000000 1.0  -0.02
Li     1 -0.0229700000000  0.0313850000000  0.2489340000000 1.0  -0.02
O      2  0.0490590000000  0.1598990000000 -0.1802020000000 1.0   0.01
O      2 -0.0490590000000 -0.3401010000000 -0.1802020000000 1.0   0.01
S      3 -0.5014360000000 -0.1466880000000 -0.5340970000000 1.0   0.16
S      3  0.5014360000000 -0.3874090000000 -0.5340970000000 1.0   0.16
S      3 -0.5014360000000  0.1125910000000 -0.5340970000000 1.0   0.16
S      3  0.5014360000000  0.3533120000000 -0.5340970000000 1.0   0.16
S      3  0.5000000000000  0.0212520000000  0.0425030000000 1.0   0.00
S      3 -0.5000000000000  0.5212520000000  0.0425030000000 1.0   0.00
Fe     4  0.0000000000000  0.2557340000000  0.5114680000000 1.0   3.62
Fe     4  0.0000000000000 -0.2442660000000  0.5114680000000 1.0   3.62
END
