TITL LFSO-Li3FeS2O-201025-031008-31e9d3 0.0951 598.108321 -7.51939819E+003 9.00000 12.3471 21 (P32) n - 1
REM
REM Run started: Sun, 25 Oct 2020 11:17:45 +0000 in /scratch/scratch/uccabz1/launch_tmp/launcher_2020-10-25-03-10-06-160415
REM CASTEP 19.11| from code version Version unavailable
REM Functional Perdew Burke Ernzerhof Relativity Koelling-Harmon Dispersion off
REM Cut-off 340.0000 eV Grid scale 1.7500 Gmax 16.5316 1/A FBSC none
REM MP grid 3 3 1 Offset 0.000 0.000 0.000 No. kpts 3 Spacing 0.07
REM Total runtime: 32228.2 s
REM Overall efficiency: 87.0833 %
REM
REM
REM
REM compiler GCC version 4.9.2
REM options -cpp -iprefix /scratch/UCL/applications/gcc/4.9.2/bin/../lib/gcc/x86_64-unknown-linux-gnu/4.9.2/ -mtune=corei7 -march=x86-64 -g -O2
REM COMMAND_LINE
REM seed -199409054 1128043249 -1852452859 -1630520727 -271999073 1975687991 -930441438 -1526298620 -428672139 -960976856 -104614165 -2142552264
REM
REM S 3|1.8|5|6|7|30:31:32(qc=5)
REM O 2|1.5|12|13|15|20:21(qc=5)
REM Li 1|1.3|8|9|10|10U:20(qc=5)
REM Fe 3|2.2|2.0|1.0|8|9|10|40:41:32(qc=5)
REM Fe d:4.0 
REM
CELL 1.54180    6.31478    6.31478   17.31938   90.00000   90.00000  120.00000
LATT -1
SFAC Li O  S  Fe 
Li     1 -0.1962330000000  0.2209910000000 -0.2845310000000 1.0   0.04
Li     1 -0.2209910000000 -0.4172240000000  0.3821360000000 1.0   0.04
Li     1  0.4172240000000  0.1962330000000  0.0488020000000 1.0   0.04
Li     1  0.1719970000000  0.4497690000000  0.3264770000000 1.0  -0.03
Li     1 -0.4497690000000 -0.2777720000000 -0.0068560000000 1.0  -0.03
Li     1  0.2777720000000 -0.1719970000000 -0.3401900000000 1.0  -0.03
Li     1  0.4148070000000  0.2193020000000 -0.1934960000000 1.0  -0.02
Li     1 -0.2193020000000  0.1955060000000  0.4731710000000 1.0  -0.02
Li     1 -0.1955060000000 -0.4148070000000  0.1398370000000 1.0  -0.02
O      2  0.4783030000000  0.0251380000000 -0.2618260000000 1.0   0.07
O      2 -0.0251380000000 -0.5468360000000  0.4048410000000 1.0   0.07
O      2  0.5468360000000 -0.4783030000000  0.0715080000000 1.0   0.07
S      3 -0.4620320000000  0.5366840000000  0.2591860000000 1.0  -0.20
S      3 -0.5366840000000  0.0012840000000 -0.0741470000000 1.0  -0.20
S      3 -0.0012840000000  0.4620320000000 -0.4074810000000 1.0  -0.20
S      3 -0.4050630000000 -0.2249920000000 -0.5522580000000 1.0  -0.33
S      3  0.2249920000000 -0.1800710000000  0.1144080000000 1.0  -0.33
S      3  0.1800710000000  0.4050630000000 -0.2189250000000 1.0  -0.33
Fe     4  0.3826320000000 -0.2084520000000 -0.1847940000000 1.0   3.47
Fe     4  0.2084520000000  0.5910840000000 -0.5181280000000 1.0   3.47
Fe     4 -0.5910840000000 -0.3826320000000  0.1485390000000 1.0   3.47
END
