TITL LFSO-Li2Fe4S4O-201024-174413-cb39b0 -0.0083 455.717417 -1.10011268E+004 32.0000 32.2650 22 (I41) n - 1
REM
REM Run started: Sun, 25 Oct 2020 06:09:28 +0000 in /scratch/scratch/uccabz1/launch_tmp/launcher_2020-10-24-16-44-12-145963
REM CASTEP 19.11| from code version Version unavailable
REM Functional Perdew Burke Ernzerhof Relativity Koelling-Harmon Dispersion off
REM Cut-off 340.0000 eV Grid scale 1.7500 Gmax 16.5316 1/A FBSC none
REM MP grid 4 2 2 Offset 0.000 0.000 0.000 No. kpts 8 Spacing 0.07
REM Total runtime: 52151.4 s
REM Overall efficiency: 98.125 %
REM
REM
REM
REM compiler GCC version 4.9.2
REM options -cpp -iprefix /scratch/UCL/applications/gcc/4.9.2/bin/../lib/gcc/x86_64-unknown-linux-gnu/4.9.2/ -mtune=corei7 -march=x86-64 -g -O2
REM COMMAND_LINE
REM seed 1024399936 2027077663 812441871 249349764 -830814415 1124214146 -1632246363 1766205746 -1603121994 917184098 -489843189 -258527546
REM
REM S 3|1.8|5|6|7|30:31:32(qc=5)
REM O 2|1.5|12|13|15|20:21(qc=5)
REM Li 1|1.3|8|9|10|10U:20(qc=5)
REM Fe 3|2.2|2.0|1.0|8|9|10|40:41:32(qc=5)
REM Fe d:4.0 
REM
CELL 1.54180    4.38109   10.43157   10.43157   87.47264   77.87814   77.87814
LATT -1
SFAC Li O  S  Fe 
Li     1  0.0497690000000  0.2597710000000 -0.2900200000000 1.0  -0.10
Li     1  0.0195200000000 -0.2597710000000  0.2900200000000 1.0  -0.10
Li     1  0.5097490000000 -0.2099800000000 -0.2402290000000 1.0  -0.10
Li     1  0.0595400000000  0.2099800000000  0.2402290000000 1.0  -0.10
O      2 -0.3547710000000  0.0000000000000  0.0000000000000 1.0   0.27
O      2 -0.6047710000000 -0.5000000000000 -0.5000000000000 1.0   0.27
S      3  0.1580700000000  0.2486090000000 -0.5437230000000 1.0   0.11
S      3 -0.1370440000000 -0.2486090000000  0.5437230000000 1.0   0.11
S      3 -0.6356520000000  0.0437230000000 -0.2513910000000 1.0   0.11
S      3  0.1566790000000 -0.0437230000000  0.2513910000000 1.0   0.11
S      3  0.4320950000000  0.3719140000000 -0.2232750000000 1.0   0.11
S      3 -0.4192660000000 -0.3719140000000  0.2232750000000 1.0   0.11
S      3 -0.0411800000000 -0.2767250000000 -0.1280860000000 1.0   0.11
S      3  0.5540100000000  0.2767250000000  0.1280860000000 1.0   0.11
Fe     4  0.5428870000000 -0.1818530000000  0.0719450000000 1.0   3.86
Fe     4  0.4329790000000  0.1818530000000 -0.0719450000000 1.0   3.86
Fe     4  0.3648320000000  0.4280550000000  0.3181470000000 1.0   3.86
Fe     4  0.1110340000000 -0.4280550000000 -0.3181470000000 1.0   3.86
Fe     4 -0.5341120000000 -0.3194100000000  0.4577660000000 1.0   3.88
Fe     4 -0.3957560000000  0.3194100000000 -0.4577660000000 1.0   3.88
Fe     4 -0.3263460000000  0.0422340000000  0.1805900000000 1.0   3.88
Fe     4 -0.1035220000000 -0.0422340000000 -0.1805900000000 1.0   3.88
END
