TITL LFSO-Li3FeS2O-201022-213911-6909bc -0.0083 250.522131 -5.01403734E+003 9.90785 9.94636 14 (Ama2) n - 1
REM
REM Run started: Thu, 22 Oct 2020 23:22:41 +0100 in /lustre/scratch/uccabz1/launch_tmp/launcher_2020-10-22-20-39-10-174960
REM CASTEP 20.1 from code version af48c487+ pr-geom-scf-spinfix Tue Jun 2 15:39:59 2020 +0100
REM Functional Perdew Burke Ernzerhof Relativity Koelling-Harmon Dispersion off
REM Cut-off 340.0000 eV Grid scale 1.7500 Gmax 16.5316 1/A FBSC none
REM MP grid 3 3 3 Offset 0.000 0.000 0.000 No. kpts 8 Spacing 0.07
REM Total runtime: 7150.44 s
REM Overall efficiency: 95.5714 %
REM
REM
REM
REM compiler GCC version 4.9.2
REM options -cpp -iprefix /lustre/shared/ucl/apps/gcc/4.9.2/bin/../lib/gcc/x86_64-unknown-linux-gnu/4.9.2/ -mtune=corei7 -march=x86-64 -g -Og
REM COMMAND_LINE
REM seed -123189691 979145589 1500817685 1844640491 -1895123050 -2023301242 -700209006 959202054 1537238960 -1919483922 1749060475 -748743222
REM
REM S 3|1.8|5|6|7|30:31:32(qc=5)
REM O 2|1.5|12|13|15|20:21(qc=5)
REM Li 1|1.3|8|9|10|10U:20(qc=5)
REM Fe 3|2.2|2.0|1.0|8|9|10|40:41:32(qc=5)
REM Fe d:4.0 
REM
CELL 1.54180    6.07872    6.07872    6.94804   90.00000   90.00000   77.36853
LATT -1
SFAC Li O  S  Fe 
Li     1 -0.0811510000000  0.3180300000000 -0.0574020000000 1.0  -0.00
Li     1 -0.3180300000000  0.0811510000000  0.0574020000000 1.0  -0.00
Li     1 -0.3180300000000  0.0811510000000  0.4425980000000 1.0  -0.00
Li     1 -0.0811510000000  0.3180300000000 -0.4425980000000 1.0  -0.00
Li     1  0.6041960000000 -0.0732460000000 -0.2500000000000 1.0   0.01
Li     1  0.0732460000000 -0.6041960000000  0.2500000000000 1.0   0.01
O      2 -0.1482310000000  0.1955600000000  0.2500000000000 1.0   0.28
O      2 -0.1955600000000  0.1482310000000 -0.2500000000000 1.0   0.28
S      3  0.2998120000000  0.0605280000000 -0.0038860000000 1.0   0.34
S      3 -0.0605280000000 -0.2998120000000  0.0038860000000 1.0   0.34
S      3 -0.0605280000000 -0.2998120000000  0.4961140000000 1.0   0.34
S      3  0.2998120000000  0.0605280000000 -0.4961140000000 1.0   0.34
Fe     4  0.0894410000000 -0.0750800000000  0.2500000000000 1.0   3.99
Fe     4  0.0750800000000 -0.0894410000000 -0.2500000000000 1.0   3.99
END
