TITL LFSO-Li2Fe2S2O-201022-063844-6dafc2 -0.0300 121.396863 -3.16664628E+003 -0.203320E-01 7.62977 7 (P3m1) n - 1
REM
REM Run started: Thu, 22 Oct 2020 09:38:05 +0100 in /lustre/scratch/uccabz1/launch_tmp/launcher_2020-10-22-05-38-42-385577
REM CASTEP 20.1 from code version af48c487+ pr-geom-scf-spinfix Tue Jun 2 15:39:59 2020 +0100
REM Functional Perdew Burke Ernzerhof Relativity Koelling-Harmon Dispersion off
REM Cut-off 340.0000 eV Grid scale 1.7500 Gmax 16.5316 1/A FBSC none
REM MP grid 5 5 2 Offset 0.000 0.000 0.000 No. kpts 7 Spacing 0.07
REM Total runtime: 9370.5 s
REM Overall efficiency: 92.4167 %
REM
REM
REM
REM compiler GCC version 4.9.2
REM options -cpp -iprefix /lustre/shared/ucl/apps/gcc/4.9.2/bin/../lib/gcc/x86_64-unknown-linux-gnu/4.9.2/ -mtune=corei7 -march=x86-64 -g -Og
REM COMMAND_LINE
REM seed 1244001987 -252127187 1045403890 -1349886430 119597080 1253740409 -282220130 89674227 -2094093194 1647797276 770708783 569964179
REM
REM S 3|1.8|5|6|7|30:31:32(qc=5)
REM O 2|1.5|12|13|15|20:21(qc=5)
REM Li 1|1.3|8|9|10|10U:20(qc=5)
REM Fe 3|2.2|2.0|1.0|8|9|10|40:41:32(qc=5)
REM Fe d:4.0 
REM
CELL 1.54180    3.65749    3.65749   10.47877   90.00000   90.00000  120.00000
LATT -1
SFAC Li O  S  Fe 
Li     1  0.0000000000000 -0.0000000000000  0.2215050000000 1.0   0.04
Li     1  0.3333330000000 -0.3333330000000 -0.1913600000000 1.0  -0.01
O      2 -0.3333330000000  0.3333330000000 -0.2326340000000 1.0   0.03
S      3  0.0000000000000 -0.0000000000000  0.4398940000000 1.0  -0.17
S      3  0.3333330000000 -0.3333330000000  0.0800130000000 1.0  -0.11
Fe     4 -0.3333330000000  0.3333330000000 -0.0207640000000 1.0  -3.56
Fe     4  0.0000000000000 -0.0000000000000 -0.3560750000000 1.0   3.75
END
