TITL LFSO-Li5FeS2O2-201026-150113-6caa9f 0.0539 157.035250 -3.34056789E+003 3.85070 4.47434 10 (R3) n - 1
REM
REM Run started: Mon, 26 Oct 2020 17:30:05 +0000 in /scratch/scratch/uccabz1/launch_tmp/launcher_2020-10-26-15-01-11-272975
REM CASTEP 19.11| from code version Version unavailable
REM Functional Perdew Burke Ernzerhof Relativity Koelling-Harmon Dispersion off
REM Cut-off 340.0000 eV Grid scale 1.7500 Gmax 16.5316 1/A FBSC none
REM MP grid 4 4 2 Offset 0.000 0.000 0.000 No. kpts 16 Spacing 0.07
REM Total runtime: 8960.97 s
REM Overall efficiency: 93.4 %
REM
REM
REM
REM compiler GCC version 4.9.2
REM options -cpp -iprefix /scratch/UCL/applications/gcc/4.9.2/bin/../lib/gcc/x86_64-unknown-linux-gnu/4.9.2/ -mtune=corei7 -march=x86-64 -g -O2
REM COMMAND_LINE
REM seed -632695892 -285910776 228938733 -1195040221 -769868309 2062401820 144110461 -1745512362 336659358 -506559815 -1461490124 148632370
REM
REM S 3|1.8|5|6|7|30:31:32(qc=5)
REM O 2|1.5|12|13|15|20:21(qc=5)
REM Li 1|1.3|8|9|10|10U:20(qc=5)
REM Fe 3|2.2|2.0|1.0|8|9|10|40:41:32(qc=5)
REM Fe d:4.0 
REM
CELL 1.54180    4.98949    4.98949    7.83269   71.42754   71.42754   60.00000
LATT -1
SFAC Li O  S  Fe 
Li     1 -0.4393340000000  0.1347270000000  0.1967910000000 1.0  -0.02
Li     1  0.1347270000000  0.1078160000000  0.1967910000000 1.0  -0.02
Li     1  0.1078160000000 -0.4393340000000  0.1967910000000 1.0  -0.02
Li     1  0.1327680000000  0.1327680000000 -0.3983040000000 1.0  -0.01
Li     1  0.4204400000000  0.4204400000000 -1.2613210000000 1.0  -0.05
O      2  0.3360880000000  0.3360880000000 -1.0082630000000 1.0  -0.21
O      2  0.2117230000000  0.2117230000000 -0.6351680000000 1.0   0.09
S      3  0.0124620000000  0.0124620000000 -0.0373860000000 1.0  -0.10
S      3 -0.2026170000000 -0.2026170000000  0.6078510000000 1.0   0.20
Fe     4 -0.3048530000000 -0.3048530000000  0.9145590000000 1.0   3.98
END
