TITL LFSO-Li2Fe4S4O-201024-055030-552bda -0.0341 263.963781 -5.50028468E+003 15.9999 16.1485 11 (Pm) n - 1
REM
REM Run started: Sat, 24 Oct 2020 08:11:02 +0100 in /lustre/scratch/uccabz1/launch_tmp/launcher_2020-10-24-04-50-28-781670
REM CASTEP 20.1 from code version af48c487+ pr-geom-scf-spinfix Tue Jun 2 15:39:59 2020 +0100
REM Functional Perdew Burke Ernzerhof Relativity Koelling-Harmon Dispersion off
REM Cut-off 340.0000 eV Grid scale 1.7500 Gmax 16.5316 1/A FBSC none
REM MP grid 4 3 2 Offset 0.000 0.000 0.000 No. kpts 6 Spacing 0.07
REM Total runtime: 8963.49 s
REM Overall efficiency: 95.75 %
REM
REM
REM
REM compiler GCC version 4.9.2
REM options -cpp -iprefix /lustre/shared/ucl/apps/gcc/4.9.2/bin/../lib/gcc/x86_64-unknown-linux-gnu/4.9.2/ -mtune=corei7 -march=x86-64 -g -Og
REM COMMAND_LINE
REM seed -763380533 -1739162287 -1890242753 -1264775366 -492500462 -724407923 1023474522 -134953006 520652480 -1705348523 942034041 1742695441
REM
REM S 3|1.8|5|6|7|30:31:32(qc=5)
REM O 2|1.5|12|13|15|20:21(qc=5)
REM Li 1|1.3|8|9|10|10U:20(qc=5)
REM Fe 3|2.2|2.0|1.0|8|9|10|40:41:32(qc=5)
REM Fe d:4.0 
REM
CELL 1.54180    3.96810    6.72670    9.88915   90.00000   90.00000   89.98186
LATT -1
SFAC Li O  S  Fe 
Li     1 -0.4833480000000  0.2890180000000  0.1314740000000 1.0  -0.05
Li     1 -0.4833480000000  0.2890180000000 -0.1314740000000 1.0  -0.05
O      2  0.5417720000000 -0.4953530000000  0.0000000000000 1.0   0.19
S      3  0.0465300000000  0.4598580000000  0.2733340000000 1.0   0.15
S      3  0.0465300000000  0.4598580000000 -0.2733340000000 1.0   0.15
S      3  0.5227200000000 -0.0238600000000  0.2718510000000 1.0   0.06
S      3  0.5227200000000 -0.0238600000000 -0.2718510000000 1.0   0.06
Fe     4 -0.4379820000000 -0.3611010000000  0.1763320000000 1.0   3.88
Fe     4 -0.4379820000000 -0.3611010000000 -0.1763320000000 1.0   3.88
Fe     4  0.0217190000000  0.1299700000000 -0.3485280000000 1.0   3.87
Fe     4  0.0217190000000  0.1299700000000  0.3485280000000 1.0   3.87
END
