TITL LFSO-LiFe3S4O-201028-162336-f40bd5 0.1905 595.489281 -8.87478243E+003 23.7100 24.5054 18 (P3) n - 1
REM
REM Run started: Thu, 29 Oct 2020 01:39:11 +0000 in /lustre/scratch/uccabz1/launch_tmp/launcher_2020-10-28-22-49-16-979990
REM CASTEP 20.1 from code version af48c487+ pr-geom-scf-spinfix Tue Jun 2 15:39:59 2020 +0100
REM Functional Perdew Burke Ernzerhof Relativity Koelling-Harmon Dispersion off
REM Cut-off 340.0000 eV Grid scale 1.7500 Gmax 16.5316 1/A FBSC none
REM MP grid 3 3 1 Offset 0.000 0.000 0.000 No. kpts 3 Spacing 0.07
REM Total runtime: 34456.6 s
REM Overall efficiency: 79 %
REM
REM
REM
REM compiler GCC version 4.9.2
REM options -cpp -iprefix /lustre/shared/ucl/apps/gcc/4.9.2/bin/../lib/gcc/x86_64-unknown-linux-gnu/4.9.2/ -mtune=corei7 -march=x86-64 -g -Og
REM COMMAND_LINE
REM seed -331713363 -2002209087 -1085084653 1922041319 -361750544 -1580191314 -1350581473 829611841 -2064917503 1915997127 209682262 177305502
REM
REM S 3|1.8|5|6|7|30:31:32(qc=5)
REM O 2|1.5|12|13|15|20:21(qc=5)
REM Li 1|1.3|8|9|10|10U:20(qc=5)
REM Fe 3|2.2|2.0|1.0|8|9|10|40:41:32(qc=5)
REM Fe d:4.0 
REM
CELL 1.54180    6.56455    6.56455   15.95637   90.00000   90.00000  120.00000
LATT -1
SFAC Li O  S  Fe 
Li     1 -0.3333330000000  0.3333330000000  0.1244100000000 1.0   0.00
Li     1  0.0000000000000 -0.0000000000000 -0.3138910000000 1.0  -0.04
O      2  0.3333340000000 -0.3333340000000  0.4586010000000 1.0   0.73
O      2  0.0000000000000 -0.0000000000000  0.3241610000000 1.0   0.15
S      3  0.3693640000000 -0.0008370000000 -0.2267190000000 1.0   0.05
S      3  0.0008370000000  0.3702010000000 -0.2267190000000 1.0   0.05
S      3 -0.3702010000000 -0.3693640000000 -0.2267190000000 1.0   0.05
S      3  0.3970580000000  0.3908840000000  0.2270050000000 1.0  -0.07
S      3 -0.3908840000000  0.0061720000000  0.2270050000000 1.0  -0.07
S      3 -0.0061720000000 -0.3970580000000  0.2270050000000 1.0  -0.07
S      3  0.3333340000000 -0.3333340000000 -0.4458690000000 1.0   1.15
S      3  0.0000000000000 -0.0000000000000 -0.0788850000000 1.0   0.03
Fe     4 -0.2897820000000  0.0011490000000 -0.1702250000000 1.0   3.67
Fe     4 -0.0011490000000 -0.2909330000000 -0.1702250000000 1.0   3.67
Fe     4  0.2909330000000  0.2897820000000 -0.1702250000000 1.0   3.67
Fe     4 -0.2753210000000 -0.2729250000000  0.2772970000000 1.0   3.62
Fe     4  0.2729250000000 -0.0023970000000  0.2772970000000 1.0   3.62
Fe     4  0.0023970000000  0.2753210000000  0.2772970000000 1.0   3.62
END
