TITL LFSO-Li2Fe4S3O2-201025-173415-c34e97 -0.0076 581.960226 -1.12695616E+004 32.0000 32.4718 22 (P21/m) n - 1
REM
REM Run started: Sun, 25 Oct 2020 23:50:04 +0000 in /scratch/scratch/uccabz1/launch_tmp/launcher_2020-10-25-17-34-13-943997
REM CASTEP 19.11| from code version Version unavailable
REM Functional Perdew Burke Ernzerhof Relativity Koelling-Harmon Dispersion off
REM Cut-off 340.0000 eV Grid scale 1.7500 Gmax 16.5316 1/A FBSC none
REM MP grid 4 2 2 Offset 0.000 0.000 0.000 No. kpts 4 Spacing 0.07
REM Total runtime: 25245 s
REM Overall efficiency: 76.3077 %
REM
REM
REM
REM compiler GCC version 4.9.2
REM options -cpp -iprefix /scratch/UCL/applications/gcc/4.9.2/bin/../lib/gcc/x86_64-unknown-linux-gnu/4.9.2/ -mtune=corei7 -march=x86-64 -g -O2
REM COMMAND_LINE
REM seed 2140747446 -396559434 -765210826 1790893135 -1256015132 2018785066 2109082086 -284159441 -1637844777 -1247013835 -1059928690 -1420802788
REM
REM S 3|1.8|5|6|7|30:31:32(qc=5)
REM O 2|1.5|12|13|15|20:21(qc=5)
REM Li 1|1.3|8|9|10|10U:20(qc=5)
REM Fe 3|2.2|2.0|1.0|8|9|10|40:41:32(qc=5)
REM Fe d:4.0 
REM
CELL 1.54180    4.67931    9.47668   13.29162   90.00000   90.00000   99.11775
LATT -1
SFAC Li O  S  Fe 
Li     1  0.2690340000000 -0.5479820000000  0.0918670000000 1.0  -0.01
Li     1 -0.2690340000000  0.5479820000000 -0.4081330000000 1.0  -0.01
Li     1 -0.2690340000000  0.5479820000000 -0.0918670000000 1.0  -0.01
Li     1  0.2690340000000 -0.5479820000000  0.4081330000000 1.0  -0.01
O      2 -0.1748800000000 -0.0765610000000  0.4296620000000 1.0   0.23
O      2  0.1748800000000  0.0765610000000 -0.0703380000000 1.0   0.23
O      2  0.1748800000000  0.0765610000000 -0.4296620000000 1.0   0.23
O      2 -0.1748800000000 -0.0765610000000  0.0703380000000 1.0   0.23
S      3 -0.2935960000000  0.3393390000000  0.0343900000000 1.0   0.11
S      3  0.2935960000000 -0.3393390000000 -0.4656100000000 1.0   0.11
S      3  0.2935960000000 -0.3393390000000 -0.0343900000000 1.0   0.11
S      3 -0.2935960000000  0.3393390000000  0.4656100000000 1.0   0.11
S      3 -0.3611960000000  0.3772250000000 -0.2500000000000 1.0   0.07
S      3  0.3611960000000 -0.3772250000000  0.2500000000000 1.0   0.07
Fe     4  0.4647530000000  0.2310840000000 -0.3831890000000 1.0   3.81
Fe     4 -0.4647530000000 -0.2310840000000  0.1168110000000 1.0   3.81
Fe     4 -0.4647530000000 -0.2310840000000  0.3831890000000 1.0   3.81
Fe     4  0.4647530000000  0.2310840000000 -0.1168110000000 1.0   3.81
Fe     4  0.1321250000000 -0.1214950000000  0.5257120000000 1.0   3.82
Fe     4 -0.1321250000000  0.1214950000000  0.0257120000000 1.0   3.82
Fe     4 -0.1321250000000  0.1214950000000 -0.5257120000000 1.0   3.82
Fe     4  0.1321250000000 -0.1214950000000 -0.0257120000000 1.0   3.82
END
