TITL LFSO-Li5FeSO3-201026-192733-efade3 -0.0438 439.248153 -6.95152524E+003 9.99954 10.0643 20 (P-4) n - 1
REM
REM Run started: Tue, 27 Oct 2020 00:20:01 +0000 in /lustre/scratch/uccabz1/launch_tmp/launcher_2020-10-26-19-27-31-393041
REM CASTEP 20.1 from code version af48c487+ pr-geom-scf-spinfix Tue Jun 2 15:39:59 2020 +0100
REM Functional Perdew Burke Ernzerhof Relativity Koelling-Harmon Dispersion off
REM Cut-off 340.0000 eV Grid scale 1.7500 Gmax 16.5316 1/A FBSC none
REM MP grid 3 3 2 Offset 0.000 0.000 0.000 No. kpts 3 Spacing 0.07
REM Total runtime: 19895.9 s
REM Overall efficiency: 76.2308 %
REM
REM
REM
REM compiler GCC version 4.9.2
REM options -cpp -iprefix /lustre/shared/ucl/apps/gcc/4.9.2/bin/../lib/gcc/x86_64-unknown-linux-gnu/4.9.2/ -mtune=corei7 -march=x86-64 -g -Og
REM COMMAND_LINE
REM seed 685584934 -973029371 1412178615 1405884603 -451314920 -1416981371 -277191628 1821248064 -966864254 1836843072 886029281 -608382758
REM
REM S 3|1.8|5|6|7|30:31:32(qc=5)
REM O 2|1.5|12|13|15|20:21(qc=5)
REM Li 1|1.3|8|9|10|10U:20(qc=5)
REM Fe 3|2.2|2.0|1.0|8|9|10|40:41:32(qc=5)
REM Fe d:4.0 
REM
CELL 1.54180    5.67143    5.67143   13.65604   90.00000   90.00000   90.00000
LATT -1
SFAC Li O  S  Fe 
Li     1 -0.2235770000000  0.4789230000000 -0.1633610000000 1.0  -0.01
Li     1  0.2235770000000 -0.4789230000000 -0.1633610000000 1.0  -0.01
Li     1 -0.4789230000000 -0.2235770000000  0.1633610000000 1.0  -0.01
Li     1  0.4789230000000  0.2235770000000  0.1633610000000 1.0  -0.01
Li     1 -0.0066540000000  0.2165310000000 -0.4203920000000 1.0  -0.01
Li     1  0.0066540000000 -0.2165310000000 -0.4203920000000 1.0  -0.01
Li     1 -0.2165310000000 -0.0066540000000  0.4203920000000 1.0  -0.01
Li     1  0.2165310000000  0.0066540000000  0.4203920000000 1.0  -0.01
Li     1  0.5000000000000 -0.0000000000000 -0.0481940000000 1.0  -0.00
Li     1 -0.0000000000000 -0.5000000000000  0.0481940000000 1.0  -0.00
O      2 -0.0076110000000  0.2359170000000  0.4188000000000 1.0   0.40
O      2  0.0076110000000 -0.2359170000000  0.4188000000000 1.0   0.40
O      2 -0.2359170000000 -0.0076110000000 -0.4188000000000 1.0   0.40
O      2  0.2359170000000  0.0076110000000 -0.4188000000000 1.0   0.40
O      2 -0.0000000000000 -0.5000000000000 -0.0783440000000 1.0   0.01
O      2  0.5000000000000 -0.0000000000000  0.0783440000000 1.0   0.01
S      3 -0.5000000000000  0.5000000000000  0.2847530000000 1.0   0.12
S      3  0.5000000000000 -0.5000000000000 -0.2847530000000 1.0   0.12
Fe     4 -0.0000000000000  0.5000000000000  0.3526090000000 1.0   4.10
Fe     4  0.5000000000000 -0.0000000000000 -0.3526090000000 1.0   4.10
END
