TITL LFSO-Li4Fe3S4O-201029-155925-e85f48 -0.0406 545.266207 -1.00690165E+004 20.5182 23.9475 24 (R3) n - 1
REM
REM Run started: Fri, 30 Oct 2020 08:38:19 +0000 in /lustre/scratch/uccabz1/launch_tmp/launcher_2020-10-30-07-53-27-399874
REM CASTEP 20.1 from code version af48c487+ pr-geom-scf-spinfix Tue Jun 2 15:39:59 2020 +0100
REM Functional Perdew Burke Ernzerhof Relativity Koelling-Harmon Dispersion off
REM Cut-off 340.0000 eV Grid scale 1.7500 Gmax 16.5316 1/A FBSC none
REM MP grid 2 2 2 Offset 0.000 0.000 0.000 No. kpts 4 Spacing 0.07
REM Total runtime: 57485.7 s
REM Overall efficiency: 79.1818 %
REM
REM
REM
REM compiler GCC version 4.9.2
REM options -cpp -iprefix /scratch/UCL/applications/gcc/4.9.2/bin/../lib/gcc/x86_64-unknown-linux-gnu/4.9.2/ -mtune=corei7 -march=x86-64 -g -O2
REM COMMAND_LINE
REM seed -142391917 310479166 -516658367 1900427956 1352133174 -1543593222 432384998 -1144649407 280190740 1686615666 85238858 2108111839
REM
REM S 3|1.8|5|6|7|30:31:32(qc=5)
REM O 2|1.5|12|13|15|20:21(qc=5)
REM Li 1|1.3|8|9|10|10U:20(qc=5)
REM Fe 3|2.2|2.0|1.0|8|9|10|40:41:32(qc=5)
REM Fe d:4.0 
REM
CELL 1.54180    8.85710    8.85710    9.51656   62.26701   62.26701   60.00000
LATT -1
SFAC Li O  S  Fe 
Li     1  0.6463550000000  0.1152890000000  0.3221990000000 1.0  -0.08
Li     1  0.1152890000000 -0.0838420000000  0.3221990000000 1.0  -0.08
Li     1 -0.0838420000000  0.6463550000000  0.3221990000000 1.0  -0.08
Li     1 -0.1387270000000  0.2427080000000 -0.0810430000000 1.0  -0.08
Li     1  0.2427080000000 -0.0229370000000 -0.0810430000000 1.0  -0.08
Li     1 -0.0229370000000 -0.1387270000000 -0.0810430000000 1.0  -0.08
Li     1  0.2693850000000  0.2693850000000  0.1918460000000 1.0  -0.08
Li     1  0.3748470000000  0.3748470000000 -0.1245400000000 1.0  -0.07
O      2  0.4492340000000  0.4492340000000 -0.3477030000000 1.0   1.11
O      2  0.0703240000000  0.0703240000000 -0.2109720000000 1.0   0.24
S      3  0.4566750000000  0.0520440000000 -0.3867700000000 1.0  -0.07
S      3  0.0520440000000 -0.1219480000000 -0.3867700000000 1.0  -0.07
S      3 -0.1219480000000  0.4566750000000 -0.3867700000000 1.0  -0.07
S      3  0.1360000000000  0.1796560000000  0.0760460000000 1.0   0.02
S      3  0.1796560000000 -0.3917020000000  0.0760460000000 1.0   0.02
S      3 -0.3917020000000  0.1360000000000  0.0760460000000 1.0   0.02
S      3 -0.4186340000000 -0.4186340000000  0.2559010000000 1.0  -0.04
S      3 -0.1660970000000 -0.1660970000000 -0.5017090000000 1.0  -0.91
Fe     4  0.3954660000000  0.5981640000000  0.1447070000000 1.0   3.24
Fe     4  0.5981640000000 -0.1383370000000  0.1447070000000 1.0   3.24
Fe     4 -0.1383370000000  0.3954660000000  0.1447070000000 1.0   3.24
Fe     4  0.1742010000000  0.2874410000000 -0.3657110000000 1.0   3.73
Fe     4  0.2874410000000 -0.0959310000000 -0.3657110000000 1.0   3.73
Fe     4 -0.0959310000000  0.1742010000000 -0.3657110000000 1.0   3.73
END
