TITL LFSO-Li5FeS2O2-201026-061306-36c1ed 0.0160 168.117880 -3.33944781E+003 3.03952 4.75891 10 (R3) n - 1
REM
REM Run started: Mon, 26 Oct 2020 07:01:25 +0000 in /scratch/scratch/uccabz1/launch_tmp/launcher_2020-10-26-06-13-04-398235
REM CASTEP 19.11| from code version Version unavailable
REM Functional Perdew Burke Ernzerhof Relativity Koelling-Harmon Dispersion off
REM Cut-off 340.0000 eV Grid scale 1.7500 Gmax 16.5316 1/A FBSC none
REM MP grid 4 4 3 Offset 0.000 0.000 0.000 No. kpts 24 Spacing 0.07
REM Total runtime: 3157.64 s
REM Overall efficiency: 79.1667 %
REM
REM
REM
REM compiler GCC version 4.9.2
REM options -cpp -iprefix /scratch/UCL/applications/gcc/4.9.2/bin/../lib/gcc/x86_64-unknown-linux-gnu/4.9.2/ -mtune=corei7 -march=x86-64 -g -O2
REM COMMAND_LINE
REM seed 811560963 -1167957226 1961317910 -378173893 304721698 -207783132 1588161354 -444160049 1224478769 -673757145 565000784 -1984447962
REM
REM S 3|1.8|5|6|7|30:31:32(qc=5)
REM O 2|1.5|12|13|15|20:21(qc=5)
REM Li 1|1.3|8|9|10|10U:20(qc=5)
REM Fe 3|2.2|2.0|1.0|8|9|10|40:41:32(qc=5)
REM Fe d:4.0 
REM
CELL 1.54180    5.47842    5.47842    7.20000   67.63870   67.63870   60.00000
LATT -1
SFAC Li O  S  Fe 
Li     1  0.3703580000000 -0.0397340000000  0.2433590000000 1.0  -0.04
Li     1 -0.0397340000000 -0.5739830000000  0.2433590000000 1.0  -0.04
Li     1 -0.5739830000000  0.3703580000000  0.2433590000000 1.0  -0.04
Li     1  0.4823880000000  0.4823880000000 -1.4471660000000 1.0  -0.01
Li     1 -0.3262610000000 -0.3262610000000  0.9787840000000 1.0  -0.02
O      2  0.1895360000000  0.1895360000000 -0.5686080000000 1.0  -0.07
O      2 -0.4243380000000 -0.4243380000000  1.2730140000000 1.0  -0.01
S      3 -0.0267180000000 -0.0267180000000  0.0801520000000 1.0  -0.28
S      3  0.3630230000000  0.3630230000000 -1.0890690000000 1.0  -0.48
Fe     4 -0.1405240000000 -0.1405240000000  0.4215730000000 1.0   4.04
END
