TITL LFSO-Li4Fe3S4O-201029-124158-1c86b4 0.0380 255.006650 -5.03666603E+003 10.0044 10.4187 12 (P3) n - 1
REM
REM Run started: Thu, 29 Oct 2020 14:29:39 +0000 in /lustre/scratch/uccabz1/launch_tmp/launcher_2020-10-29-12-41-56-641270
REM CASTEP 20.1 from code version af48c487+ pr-geom-scf-spinfix Tue Jun 2 15:39:59 2020 +0100
REM Functional Perdew Burke Ernzerhof Relativity Koelling-Harmon Dispersion off
REM Cut-off 340.0000 eV Grid scale 1.7500 Gmax 16.5316 1/A FBSC none
REM MP grid 4 2 2 Offset 0.000 0.000 0.000 No. kpts 8 Spacing 0.07
REM Total runtime: 6898.5 s
REM Overall efficiency: 78.4444 %
REM
REM
REM
REM compiler GCC version 4.9.2
REM options -cpp -iprefix /lustre/shared/ucl/apps/gcc/4.9.2/bin/../lib/gcc/x86_64-unknown-linux-gnu/4.9.2/ -mtune=corei7 -march=x86-64 -g -Og
REM COMMAND_LINE
REM seed 1857007650 -1906968103 -1812940127 -91172370 1960605970 1842978410 511904891 895594988 1848892739 1265518934 -1651704660 400203696
REM
REM S 3|1.8|5|6|7|30:31:32(qc=5)
REM O 2|1.5|12|13|15|20:21(qc=5)
REM Li 1|1.3|8|9|10|10U:20(qc=5)
REM Fe 3|2.2|2.0|1.0|8|9|10|40:41:32(qc=5)
REM Fe d:4.0 
REM
CELL 1.54180    4.22830    8.34502    8.34502  120.00000   90.00000   90.00000
LATT -1
SFAC Li O  S  Fe 
Li     1 -0.2716400000000  0.1771190000000  0.2220570000000 1.0  -0.04
Li     1 -0.2716400000000  0.0449370000000 -0.1771190000000 1.0  -0.04
Li     1 -0.2716400000000 -0.2220570000000 -0.0449370000000 1.0  -0.04
Li     1  0.5753820000000  0.3333330000000 -0.3333330000000 1.0  -0.02
O      2 -0.4656260000000  0.0000000000000 -0.0000000000000 1.0   0.01
S      3  0.5378760000000 -0.5209250000000 -0.5203840000000 1.0   0.01
S      3  0.5378760000000  0.0005410000000  0.5209250000000 1.0   0.01
S      3  0.5378760000000  0.5203840000000 -0.0005410000000 1.0   0.01
S      3 -0.8635700000000  0.0000000000000 -0.0000000000000 1.0   0.06
Fe     4  0.0284290000000 -0.4176850000000 -0.5285120000000 1.0   3.35
Fe     4  0.0284290000000 -0.1108270000000  0.4176850000000 1.0   3.35
Fe     4  0.0284290000000  0.5285120000000  0.1108270000000 1.0   3.35
END
