TITL LFSO-Li2Fe4S3O2-201026-181705-7cf157 -0.5348 602.723290 -1.12571408E+004 -23.9343 30.4833 22 (P3) n - 1
REM
REM Run started: Wed, 28 Oct 2020 18:59:29 +0000 in /lustre/scratch/uccabz1/launch_tmp/launcher_2020-10-28-18-16-02-496635
REM CASTEP 20.1 from code version af48c487+ pr-geom-scf-spinfix Tue Jun 2 15:39:59 2020 +0100
REM Functional Perdew Burke Ernzerhof Relativity Koelling-Harmon Dispersion off
REM Cut-off 340.0000 eV Grid scale 1.7500 Gmax 16.5316 1/A FBSC none
REM MP grid 3 3 1 Offset 0.000 0.000 0.000 No. kpts 3 Spacing 0.07
REM Total runtime: 135826 s
REM Overall efficiency: 78.1 %
REM
REM
REM
REM compiler GCC version 4.9.2
REM options -cpp -iprefix /lustre/shared/ucl/apps/gcc/4.9.2/bin/../lib/gcc/x86_64-unknown-linux-gnu/4.9.2/ -mtune=corei7 -march=x86-64 -g -Og
REM COMMAND_LINE
REM seed -484301389 1361261040 603465464 1352973339 1707486965 -1014149898 -1928516591 -1689965061 1438502595 355390178 220420352 2060954534
REM
REM S 3|1.8|5|6|7|30:31:32(qc=5)
REM O 2|1.5|12|13|15|20:21(qc=5)
REM Li 1|1.3|8|9|10|10U:20(qc=5)
REM Fe 3|2.2|2.0|1.0|8|9|10|40:41:32(qc=5)
REM Fe d:4.0 
REM
CELL 1.54180    6.84446    6.84446   14.85622   90.00000   90.00000  120.00000
LATT -1
SFAC Li O  S  Fe 
Li     1  0.3970120000000  0.4513930000000 -0.2193600000000 1.0   0.20
Li     1  0.0543810000000 -0.3970120000000 -0.2193600000000 1.0   0.20
Li     1 -0.4513930000000 -0.0543810000000 -0.2193600000000 1.0   0.20
Li     1  0.0000000000000  0.0000000000000 -0.3188940000000 1.0   0.49
O      2  0.2437260000000 -0.0030900000000  0.1599420000000 1.0  -0.10
O      2 -0.2468160000000 -0.2437260000000  0.1599420000000 1.0  -0.10
O      2  0.0030900000000  0.2468160000000  0.1599420000000 1.0  -0.10
O      2  0.3333330000000 -0.3333330000000 -0.4778950000000 1.0  -0.74
S      3  0.3456040000000  0.3428120000000  0.3431800000000 1.0   0.02
S      3 -0.0027920000000 -0.3456040000000  0.3431800000000 1.0   0.02
S      3 -0.3428120000000  0.0027920000000  0.3431800000000 1.0   0.02
S      3  0.3738890000000  0.3705040000000 -0.0672040000000 1.0  -0.10
S      3 -0.0033850000000 -0.3738890000000 -0.0672040000000 1.0  -0.10
S      3 -0.3705040000000  0.0033850000000 -0.0672040000000 1.0  -0.10
Fe     4  0.0018350000000  0.3274820000000  0.2900500000000 1.0  -3.76
Fe     4  0.3256470000000 -0.0018350000000  0.2900500000000 1.0  -3.76
Fe     4 -0.3274820000000 -0.3256470000000  0.2900500000000 1.0  -3.76
Fe     4  0.2740080000000 -0.0022960000000 -0.0604620000000 1.0  -3.61
Fe     4 -0.2763040000000 -0.2740080000000 -0.0604620000000 1.0  -3.61
Fe     4  0.0022960000000  0.2763040000000 -0.0604620000000 1.0  -3.61
Fe     4 -0.0000000000000  0.0000000000000  0.1429980000000 1.0   2.09
Fe     4  0.3333330000000 -0.3333330000000 -0.3644340000000 1.0  -3.75
END
