TITL LFSO-Li6FeS3O-201027-195055-ffcbdb 0.0102 223.549582 -3.41126249E+003 4.00000 4.16336 11 (P3) n - 1
REM
REM Run started: Tue, 27 Oct 2020 20:15:29 +0000 in /lustre/scratch/uccabz1/launch_tmp/launcher_2020-10-27-19-50-54-013099
REM CASTEP 20.1 from code version af48c487+ pr-geom-scf-spinfix Tue Jun 2 15:39:59 2020 +0100
REM Functional Perdew Burke Ernzerhof Relativity Koelling-Harmon Dispersion off
REM Cut-off 340.0000 eV Grid scale 1.7500 Gmax 16.5316 1/A FBSC none
REM MP grid 4 3 3 Offset 0.000 0.000 0.000 No. kpts 10 Spacing 0.07
REM Total runtime: 1974.03 s
REM Overall efficiency: 77.8333 %
REM
REM
REM
REM compiler GCC version 4.9.2
REM options -cpp -iprefix /lustre/shared/ucl/apps/gcc/4.9.2/bin/../lib/gcc/x86_64-unknown-linux-gnu/4.9.2/ -mtune=corei7 -march=x86-64 -g -Og
REM COMMAND_LINE
REM seed 1134245242 -2030617124 -609295917 -640475869 961616962 -1739289463 1744965407 602080559 -232353871 713092426 -428245413 -284336697
REM
REM S 3|1.8|5|6|7|30:31:32(qc=5)
REM O 2|1.5|12|13|15|20:21(qc=5)
REM Li 1|1.3|8|9|10|10U:20(qc=5)
REM Fe 3|2.2|2.0|1.0|8|9|10|40:41:32(qc=5)
REM Fe d:4.0 
REM
CELL 1.54180    4.97296    7.20467    7.20467  120.00000   90.00000   90.00000
LATT -1
SFAC Li O  S  Fe 
Li     1 -0.5145740000000 -0.3475380000000 -0.4259250000000 1.0  -0.01
Li     1 -0.5145740000000 -0.0783870000000  0.3475380000000 1.0  -0.01
Li     1 -0.5145740000000  0.4259250000000  0.0783870000000 1.0  -0.01
Li     1  0.0827400000000 -0.3317890000000  0.1176920000000 1.0   0.00
Li     1  0.0827400000000  0.4494810000000  0.3317890000000 1.0   0.00
Li     1  0.0827400000000 -0.1176920000000 -0.4494810000000 1.0   0.00
O      2  0.3566080000000 -0.3333330000000  0.3333330000000 1.0   0.01
S      3 -0.0231060000000  0.0441470000000  0.3359250000000 1.0   0.11
S      3 -0.0231060000000  0.2917780000000 -0.0441470000000 1.0   0.11
S      3 -0.0231060000000 -0.3359250000000 -0.2917780000000 1.0   0.11
Fe     4 -0.0409210000000  0.0000000000000 -0.0000000000000 1.0   3.68
END
