TITL LFSO-Li4Fe3S4O-201030-071723-2cd70f 0.1133 548.197883 -1.00710347E+004 3.90554 23.6188 24 (P-4) n - 1
REM
REM Run started: Fri, 30 Oct 2020 15:13:53 +0000 in /lustre/scratch/uccabz1/launch_tmp/launcher_2020-10-30-07-17-21-853034
REM CASTEP 20.1 from code version af48c487+ pr-geom-scf-spinfix Tue Jun 2 15:39:59 2020 +0100
REM Functional Perdew Burke Ernzerhof Relativity Koelling-Harmon Dispersion off
REM Cut-off 340.0000 eV Grid scale 1.7500 Gmax 16.5316 1/A FBSC none
REM MP grid 3 3 2 Offset 0.000 0.000 0.000 No. kpts 3 Spacing 0.07
REM Total runtime: 32851.2 s
REM Overall efficiency: 72.5 %
REM
REM
REM
REM compiler GCC version 4.9.2
REM options -cpp -iprefix /lustre/shared/ucl/apps/gcc/4.9.2/bin/../lib/gcc/x86_64-unknown-linux-gnu/4.9.2/ -mtune=corei7 -march=x86-64 -g -Og
REM COMMAND_LINE
REM seed 1050788083 41896771 38217727 -1495162299 -1105213193 -1570315245 169451260 -966003608 -932737564 2091924679 -956470234 -1273661104
REM
REM S 3|1.8|5|6|7|30:31:32(qc=5)
REM O 2|1.5|12|13|15|20:21(qc=5)
REM Li 1|1.3|8|9|10|10U:20(qc=5)
REM Fe 3|2.2|2.0|1.0|8|9|10|40:41:32(qc=5)
REM Fe d:4.0 
REM
CELL 1.54180    6.73493    6.73493   12.08567   90.00000   90.00000   90.00000
LATT -1
SFAC Li O  S  Fe 
Li     1  0.4643350000000 -0.2580850000000  0.4284220000000 1.0   0.04
Li     1 -0.4643350000000  0.2580850000000  0.4284220000000 1.0   0.04
Li     1  0.2580850000000  0.4643350000000 -0.4284220000000 1.0   0.04
Li     1 -0.2580850000000 -0.4643350000000 -0.4284220000000 1.0   0.04
Li     1 -0.2998220000000 -0.0475030000000 -0.2874360000000 1.0  -0.01
Li     1  0.2998220000000  0.0475030000000 -0.2874360000000 1.0  -0.01
Li     1  0.0475030000000 -0.2998220000000  0.2874360000000 1.0  -0.01
Li     1 -0.0475030000000  0.2998220000000  0.2874360000000 1.0  -0.01
O      2 -0.5000000000000 -0.0000000000000  0.4020670000000 1.0  -1.01
O      2  0.0000000000000  0.5000000000000 -0.4020670000000 1.0  -1.01
S      3 -0.3089200000000  0.2268210000000  0.1102430000000 1.0   0.03
S      3  0.3089200000000 -0.2268210000000  0.1102430000000 1.0   0.03
S      3 -0.2268210000000 -0.3089200000000 -0.1102430000000 1.0   0.03
S      3  0.2268210000000  0.3089200000000 -0.1102430000000 1.0   0.03
S      3  0.5481340000000  0.2531650000000 -0.3517080000000 1.0  -0.05
S      3 -0.5481340000000 -0.2531650000000 -0.3517080000000 1.0  -0.05
S      3 -0.2531650000000  0.5481340000000  0.3517080000000 1.0  -0.05
S      3  0.2531650000000 -0.5481340000000  0.3517080000000 1.0  -0.05
Fe     4 -0.3121430000000 -0.0745920000000  0.0203590000000 1.0   3.36
Fe     4  0.3121430000000  0.0745920000000  0.0203590000000 1.0   3.36
Fe     4  0.0745920000000 -0.3121430000000 -0.0203590000000 1.0   3.36
Fe     4 -0.0745920000000  0.3121430000000 -0.0203590000000 1.0   3.36
Fe     4  0.5000000000000 -0.5000000000000  0.2178630000000 1.0  -3.79
Fe     4 -0.5000000000000  0.5000000000000 -0.2178630000000 1.0  -3.79
END
