TITL LFSO-Li2Fe4S3O2-201025-061739-cf6e62 -0.0779 481.415166 -1.12701365E+004 -32.0000 32.4504 22 (C2) n - 1
REM
REM Run started: Mon, 26 Oct 2020 00:58:06 +0000 in /lustre/scratch/uccabz1/launch_tmp/launcher_2020-10-25-06-17-37-445686
REM CASTEP 20.1 from code version af48c487+ pr-geom-scf-spinfix Tue Jun 2 15:39:59 2020 +0100
REM Functional Perdew Burke Ernzerhof Relativity Koelling-Harmon Dispersion off
REM Cut-off 340.0000 eV Grid scale 1.7500 Gmax 16.5316 1/A FBSC none
REM MP grid 3 3 2 Offset 0.000 0.000 0.000 No. kpts 9 Spacing 0.07
REM Total runtime: 72806.8 s
REM Overall efficiency: 75.6667 %
REM
REM
REM
REM compiler GCC version 4.9.2
REM options -cpp -iprefix /lustre/shared/ucl/apps/gcc/4.9.2/bin/../lib/gcc/x86_64-unknown-linux-gnu/4.9.2/ -mtune=corei7 -march=x86-64 -g -Og
REM COMMAND_LINE
REM seed -1198347398 -508800470 1219270237 -1349608891 -1326758948 825281216 -745571615 907950562 -699535643 -1033828073 1281057625 1732788615
REM
REM S 3|1.8|5|6|7|30:31:32(qc=5)
REM O 2|1.5|12|13|15|20:21(qc=5)
REM Li 1|1.3|8|9|10|10U:20(qc=5)
REM Fe 3|2.2|2.0|1.0|8|9|10|40:41:32(qc=5)
REM Fe d:4.0 
REM
CELL 1.54180    7.21586    7.78216    9.53589  114.08216   80.85531   90.00000
LATT -1
SFAC Li O  S  Fe 
Li     1  0.1403820000000 -0.2744370000000  0.4679280000000 1.0   0.07
Li     1 -0.1403820000000  0.2576350000000 -0.4679280000000 1.0   0.07
Li     1 -0.2644670000000 -0.3511850000000 -0.4724220000000 1.0   0.08
Li     1  0.2644670000000  0.1212360000000  0.4724220000000 1.0   0.08
O      2 -0.3474850000000  0.1840740000000  0.0635000000000 1.0  -0.27
O      2  0.3474850000000  0.1205740000000 -0.0635000000000 1.0  -0.27
O      2 -0.2641880000000 -0.4965320000000 -0.3566670000000 1.0  -0.21
O      2  0.2641880000000 -0.1398650000000  0.3566670000000 1.0  -0.21
S      3  0.0569050000000  0.1780280000000  0.2746260000000 1.0  -0.08
S      3 -0.0569050000000 -0.0965980000000 -0.2746260000000 1.0  -0.08
S      3  0.1536490000000  0.3873940000000 -0.2602220000000 1.0  -0.09
S      3 -0.1536490000000 -0.3523850000000  0.2602210000000 1.0  -0.09
S      3  0.4166840000000  0.5035420000000  0.4203760000000 1.0  -0.14
S      3 -0.4166840000000  0.0831660000000 -0.4203760000000 1.0  -0.14
Fe     4 -0.5184430000000  0.4173800000000 -0.3617910000000 1.0  -3.87
Fe     4  0.5184430000000 -0.2208280000000  0.3617910000000 1.0  -3.87
Fe     4  0.0680590000000 -0.1357400000000  0.2455960000000 1.0  -3.84
Fe     4 -0.0680590000000 -0.3813370000000 -0.2455960000000 1.0  -3.84
Fe     4  0.6185380000000  0.0812200000000 -0.1631780000000 1.0  -3.82
Fe     4 -0.6185380000000  0.2443990000000  0.1631780000000 1.0  -3.82
Fe     4 -0.1670090000000  0.3124710000000  0.1800860000000 1.0  -3.82
Fe     4  0.1670090000000  0.1323850000000 -0.1800860000000 1.0  -3.82
END
