TITL LFSO-Li2Fe3S2O2-201022-085222-624168 -0.0061 175.056086 -4.46678592E+003 10.6404 11.0054 9 (Fmm2) n - 1
REM
REM Run started: Thu, 22 Oct 2020 10:18:57 +0100 in /lustre/scratch/uccabz1/launch_tmp/launcher_2020-10-22-07-52-19-819658
REM CASTEP 20.1 from code version af48c487+ pr-geom-scf-spinfix Tue Jun 2 15:39:59 2020 +0100
REM Functional Perdew Burke Ernzerhof Relativity Koelling-Harmon Dispersion off
REM Cut-off 340.0000 eV Grid scale 1.7500 Gmax 16.5316 1/A FBSC none
REM MP grid 4 4 3 Offset 0.000 0.000 0.000 No. kpts 16 Spacing 0.07
REM Total runtime: 6142.32 s
REM Overall efficiency: 94.5714 %
REM
REM
REM
REM compiler GCC version 4.9.2
REM options -cpp -iprefix /lustre/shared/ucl/apps/gcc/4.9.2/bin/../lib/gcc/x86_64-unknown-linux-gnu/4.9.2/ -mtune=corei7 -march=x86-64 -g -Og
REM COMMAND_LINE
REM seed -1923656039 1803840203 -415270703 144110461 -1481295271 741247190 1379600593 207019001 1287679230 1826258115 -535368926 -1168231509
REM
REM S 3|1.8|5|6|7|30:31:32(qc=5)
REM O 2|1.5|12|13|15|20:21(qc=5)
REM Li 1|1.3|8|9|10|10U:20(qc=5)
REM Fe 3|2.2|2.0|1.0|8|9|10|40:41:32(qc=5)
REM Fe d:4.0 
REM
CELL 1.54180    5.66988    5.66988    7.26040   99.00096   99.00096  126.82144
LATT -1
SFAC Li O  S  Fe 
Li     1 -0.2103560000000  0.4245730000000  0.2142170000000 1.0  -0.05
Li     1  0.4245730000000 -0.2103560000000  0.2142170000000 1.0  -0.05
O      2  0.2948520000000  0.0038480000000  0.2987000000000 1.0   0.14
O      2  0.0038480000000  0.2948520000000  0.2987000000000 1.0   0.14
S      3 -0.2917150000000  0.1743700000000 -0.1173450000000 1.0   0.02
S      3  0.1743700000000 -0.2917150000000 -0.1173450000000 1.0   0.02
Fe     4  0.1061060000000 -0.5345090000000 -0.4284030000000 1.0   3.28
Fe     4 -0.5345090000000  0.1061060000000 -0.4284030000000 1.0   3.28
Fe     4  0.0575480000000  0.0575480000000  0.1150960000000 1.0   3.87
END
