TITL LFSO-LiFe3S4O-201028-113825-d76eff -0.0293 524.826858 -8.87461785E+003 -23.6839 24.1695 18 (P3) n - 1
REM
REM Run started: Wed, 28 Oct 2020 21:25:08 +0000 in /lustre/scratch/uccabz1/launch_tmp/launcher_2020-10-28-11-38-23-502946
REM CASTEP 20.1 from code version af48c487+ pr-geom-scf-spinfix Tue Jun 2 15:39:59 2020 +0100
REM Functional Perdew Burke Ernzerhof Relativity Koelling-Harmon Dispersion off
REM Cut-off 340.0000 eV Grid scale 1.7500 Gmax 16.5316 1/A FBSC none
REM MP grid 3 3 2 Offset 0.000 0.000 0.000 No. kpts 5 Spacing 0.07
REM Total runtime: 35735.8 s
REM Overall efficiency: 80.8462 %
REM
REM
REM
REM compiler GCC version 4.9.2
REM options -cpp -iprefix /lustre/shared/ucl/apps/gcc/4.9.2/bin/../lib/gcc/x86_64-unknown-linux-gnu/4.9.2/ -mtune=corei7 -march=x86-64 -g -Og
REM COMMAND_LINE
REM seed -142932302 79090196 289330617 1860763782 -1502621361 -128149720 1740378187 -283936581 -741380889 1139638362 951314572 1382539721
REM
REM S 3|1.8|5|6|7|30:31:32(qc=5)
REM O 2|1.5|12|13|15|20:21(qc=5)
REM Li 1|1.3|8|9|10|10U:20(qc=5)
REM Fe 3|2.2|2.0|1.0|8|9|10|40:41:32(qc=5)
REM Fe d:4.0 
REM
CELL 1.54180    6.98905    6.98905   12.40650   90.00000   90.00000  120.00000
LATT -1
SFAC Li O  S  Fe 
Li     1  0.3333330000000 -0.3333330000000 -0.4774930000000 1.0   0.04
Li     1 -0.3333330000000  0.3333330000000 -0.2875810000000 1.0  -0.04
O      2 -0.0000000000000  0.0000000000000 -0.1632660000000 1.0  -0.48
O      2 -0.0000000000000  0.0000000000000  0.3520330000000 1.0  -0.13
S      3 -0.4853700000000  0.0297750000000 -0.1505500000000 1.0  -0.13
S      3  0.5151450000000  0.4853700000000 -0.1505500000000 1.0  -0.13
S      3 -0.0297750000000 -0.5151450000000 -0.1505500000000 1.0  -0.13
S      3 -0.3996440000000 -0.0027530000000  0.4271800000000 1.0   0.05
S      3  0.3968910000000  0.3996440000000  0.4271800000000 1.0   0.05
S      3  0.0027530000000 -0.3968910000000  0.4271800000000 1.0   0.05
S      3  0.3333330000000 -0.3333330000000 -0.1887570000000 1.0  -0.21
S      3 -0.0000000000000  0.0000000000000  0.0714610000000 1.0  -0.23
Fe     4 -0.0010490000000  0.2704980000000  0.3837160000000 1.0  -3.71
Fe     4  0.2715460000000  0.0010490000000  0.3837160000000 1.0  -3.71
Fe     4 -0.2704980000000 -0.2715460000000  0.3837160000000 1.0  -3.71
Fe     4 -0.1340900000000  0.1327710000000 -0.0706720000000 1.0  -3.74
Fe     4  0.2668610000000  0.1340900000000 -0.0706720000000 1.0  -3.74
Fe     4 -0.1327710000000 -0.2668610000000 -0.0706720000000 1.0  -3.74
END
