TITL LFSO-Li4Fe3S4O-201028-195616-2d33af -0.0297 209.475049 -5.04023302E+003 12.0000 12.1453 12 (P2) n - 1
REM
REM Run started: Wed, 28 Oct 2020 22:02:50 +0000 in /lustre/scratch/uccabz1/launch_tmp/launcher_2020-10-28-19-56-14-837234
REM CASTEP 20.1 from code version af48c487+ pr-geom-scf-spinfix Tue Jun 2 15:39:59 2020 +0100
REM Functional Perdew Burke Ernzerhof Relativity Koelling-Harmon Dispersion off
REM Cut-off 340.0000 eV Grid scale 1.7500 Gmax 16.5316 1/A FBSC none
REM MP grid 4 3 2 Offset 0.000 0.000 0.000 No. kpts 6 Spacing 0.07
REM Total runtime: 8255.77 s
REM Overall efficiency: 88.5714 %
REM
REM
REM
REM compiler GCC version 4.9.2
REM options -cpp -iprefix /lustre/shared/ucl/apps/gcc/4.9.2/bin/../lib/gcc/x86_64-unknown-linux-gnu/4.9.2/ -mtune=corei7 -march=x86-64 -g -Og
REM COMMAND_LINE
REM seed 1921461739 -223763260 393600459 -206321592 -851660273 -708552987 709327960 -591543640 1146773786 -630074020 -256193381 -2039268828
REM
REM S 3|1.8|5|6|7|30:31:32(qc=5)
REM O 2|1.5|12|13|15|20:21(qc=5)
REM Li 1|1.3|8|9|10|10U:20(qc=5)
REM Fe 3|2.2|2.0|1.0|8|9|10|40:41:32(qc=5)
REM Fe d:4.0 
REM
CELL 1.54180    3.78924    6.37666   10.19289  121.73057   90.00000   90.00000
LATT -1
SFAC Li O  S  Fe 
Li     1  0.2723150000000  0.2153250000000 -0.3553050000000 1.0  -0.00
Li     1  0.2723150000000 -0.2153250000000  0.3553050000000 1.0  -0.00
Li     1  0.2744730000000  0.2698900000000  0.1771480000000 1.0  -0.07
Li     1  0.2744730000000 -0.2698900000000 -0.1771480000000 1.0  -0.07
O      2  0.4897870000000  0.0000000000000  0.0000000000000 1.0   0.14
S      3  0.2360210000000  0.1919390000000  0.3869280000000 1.0   0.15
S      3  0.2360210000000 -0.1919390000000 -0.3869280000000 1.0   0.15
S      3 -0.2352380000000 -0.4438140000000  0.1896050000000 1.0   0.12
S      3 -0.2352380000000  0.4438140000000 -0.1896050000000 1.0   0.12
Fe     4 -0.3257240000000 -0.1993200000000  0.0776730000000 1.0   3.81
Fe     4 -0.3257240000000  0.1993200000000 -0.0776730000000 1.0   3.81
Fe     4 -0.2741210000000 -0.5000000000000 -0.5000000000000 1.0   3.84
END
