TITL LFSO-Li4Fe3S3O2-201029-142757-c737c7 0.0148 296.354317 -5.17413624E+003 -4.00000 11.6008 12 (Imm2) n - 1
REM
REM Run started: Thu, 29 Oct 2020 22:34:09 +0000 in /lustre/scratch/uccabz1/launch_tmp/launcher_2020-10-29-14-27-55-980790
REM CASTEP 20.1 from code version af48c487+ pr-geom-scf-spinfix Tue Jun 2 15:39:59 2020 +0100
REM Functional Perdew Burke Ernzerhof Relativity Koelling-Harmon Dispersion off
REM Cut-off 340.0000 eV Grid scale 1.7500 Gmax 16.5316 1/A FBSC none
REM MP grid 3 3 3 Offset 0.000 0.000 0.000 No. kpts 8 Spacing 0.07
REM Total runtime: 30082 s
REM Overall efficiency: 95.4615 %
REM
REM
REM
REM compiler GCC version 4.9.2
REM options -cpp -iprefix /lustre/shared/ucl/apps/gcc/4.9.2/bin/../lib/gcc/x86_64-unknown-linux-gnu/4.9.2/ -mtune=corei7 -march=x86-64 -g -Og
REM COMMAND_LINE
REM seed 1563029497 -1493112949 73014738 1248246512 -1291358776 28919988 -1114933245 -706921903 969693258 937049710 -603233372 1286290385
REM
REM S 3|1.8|5|6|7|30:31:32(qc=5)
REM O 2|1.5|12|13|15|20:21(qc=5)
REM Li 1|1.3|8|9|10|10U:20(qc=5)
REM Fe 3|2.2|2.0|1.0|8|9|10|40:41:32(qc=5)
REM Fe d:4.0 
REM
CELL 1.54180    6.09982    9.10207    9.10207   38.85589   70.42262   70.42262
LATT -1
SFAC Li O  S  Fe 
Li     1  0.5568120000000 -0.1055580000000 -0.5267720000000 1.0   0.01
Li     1 -0.0755180000000  0.1055580000000  0.5267720000000 1.0   0.01
Li     1  0.5568120000000 -0.5267720000000 -0.1055580000000 1.0   0.01
Li     1 -0.0755180000000  0.5267720000000  0.1055580000000 1.0   0.01
O      2  0.4906910000000 -0.3866980000000 -0.3866980000000 1.0  -0.01
O      2 -0.2827050000000  0.3866980000000  0.3866980000000 1.0  -0.01
S      3 -0.1752270000000 -0.2590700000000 -0.2590700000000 1.0  -0.07
S      3  0.3066340000000  0.2590700000000  0.2590700000000 1.0  -0.07
S      3  0.0886210000000  0.5000000000000 -0.5000000000000 1.0  -0.03
Fe     4  0.1665070000000 -0.3754060000000 -0.3754060000000 1.0  -3.77
Fe     4  0.4156960000000  0.3754060000000  0.3754060000000 1.0  -3.77
Fe     4 -0.2924530000000 -0.5000000000000  0.5000000000000 1.0   3.70
END
