TITL LFSO-Li2Fe2S2O-201022-012905-800578 -0.0729 289.599107 -6.33699031E+003 8.00000 15.7934 14 (R3) n - 1
REM
REM Run started: Thu, 22 Oct 2020 06:22:03 +0100 in /scratch/scratch/uccabz1/launch_tmp/launcher_2020-10-22-00-29-02-301008
REM CASTEP 19.11| from code version Version unavailable
REM Functional Perdew Burke Ernzerhof Relativity Koelling-Harmon Dispersion off
REM Cut-off 340.0000 eV Grid scale 1.7500 Gmax 16.5316 1/A FBSC none
REM MP grid 3 3 3 Offset 0.000 0.000 0.000 No. kpts 6 Spacing 0.07
REM Total runtime: 19795.1 s
REM Overall efficiency: 97.4286 %
REM
REM
REM
REM compiler GCC version 4.9.2
REM options -cpp -iprefix /scratch/UCL/applications/gcc/4.9.2/bin/../lib/gcc/x86_64-unknown-linux-gnu/4.9.2/ -mtune=corei7 -march=x86-64 -g -O2
REM COMMAND_LINE
REM seed -1870594892 1656593297 1680258570 -1118168895 1039331632 83861990 -1772175358 -1192400180 815845890 -398654168 947526540 2058943218
REM
REM S 3|1.8|5|6|7|30:31:32(qc=5)
REM O 2|1.5|12|13|15|20:21(qc=5)
REM Li 1|1.3|8|9|10|10U:20(qc=5)
REM Fe 3|2.2|2.0|1.0|8|9|10|40:41:32(qc=5)
REM Fe d:4.0 
REM
CELL 1.54180    8.15993    8.15993    8.15993   49.58813   49.58813   49.58813
LATT -1
SFAC Li O  S  Fe 
Li     1 -0.5002580000000 -0.2766120000000 -0.0222670000000 1.0  -0.00
Li     1 -0.2766120000000 -0.0222670000000 -0.5002580000000 1.0  -0.00
Li     1 -0.0222670000000 -0.5002580000000 -0.2766120000000 1.0  -0.00
Li     1  0.0000130000000  0.0000130000000  0.0000130000000 1.0  -0.07
O      2  0.5679470000000  0.5679470000000  0.5679470000000 1.0   0.27
O      2 -0.3167620000000 -0.3167620000000 -0.3167620000000 1.0   0.24
S      3  0.1329700000000 -0.2732100000000  0.3081420000000 1.0  -0.03
S      3 -0.2732100000000  0.3081420000000  0.1329700000000 1.0  -0.03
S      3  0.3081420000000  0.1329700000000 -0.2732100000000 1.0  -0.03
S      3  0.2367550000000  0.2367550000000  0.2367550000000 1.0   0.05
Fe     4 -0.4577510000000  0.4236170000000 -0.1046780000000 1.0   3.79
Fe     4  0.4236170000000 -0.1046780000000 -0.4577510000000 1.0   3.79
Fe     4 -0.1046780000000 -0.4577510000000  0.4236170000000 1.0   3.79
Fe     4  0.1178780000000  0.1178780000000  0.1178780000000 1.0  -3.76
END
