TITL LFSO-Li2Fe4S4O-201024-120229-047e93 0.1776 696.624600 -1.09971537E+004 -2.00000 29.0037 22 (R3) n - 1
REM
REM Run started: Tue, 27 Oct 2020 01:08:34 +0000 in /lustre/scratch/uccabz1/launch_tmp/launcher_2020-10-26-23-20-33-260707
REM CASTEP 20.1 from code version af48c487+ pr-geom-scf-spinfix Tue Jun 2 15:39:59 2020 +0100
REM Functional Perdew Burke Ernzerhof Relativity Koelling-Harmon Dispersion off
REM Cut-off 340.0000 eV Grid scale 1.7500 Gmax 16.5316 1/A FBSC none
REM MP grid 3 3 3 Offset 0.000 0.000 0.000 No. kpts 6 Spacing 0.07
REM Total runtime: 99082.9 s
REM Overall efficiency: 91.1538 %
REM
REM
REM
REM compiler GCC version 4.9.2
REM options -cpp -iprefix /lustre/shared/ucl/apps/gcc/4.9.2/bin/../lib/gcc/x86_64-unknown-linux-gnu/4.9.2/ -mtune=corei7 -march=x86-64 -g -Og
REM COMMAND_LINE
REM seed -1789210915 115716648 -254450794 -378288196 -70556823 -2019390692 521070573 1396929901 -719174192 -2068504446 264847474 598365314
REM
REM S 3|1.8|5|6|7|30:31:32(qc=5)
REM O 2|1.5|12|13|15|20:21(qc=5)
REM Li 1|1.3|8|9|10|10U:20(qc=5)
REM Fe 3|2.2|2.0|1.0|8|9|10|40:41:32(qc=5)
REM Fe d:4.0 
REM
CELL 1.54180   12.64691   12.64691   12.64691   38.26134   38.26134   38.26134
LATT -1
SFAC Li O  S  Fe 
Li     1  0.2774860000000 -0.1911150000000 -0.2310300000000 1.0  -0.02
Li     1 -0.2310300000000  0.2774860000000 -0.1911150000000 1.0  -0.02
Li     1 -0.1911150000000 -0.2310300000000  0.2774860000000 1.0  -0.02
Li     1  0.4485290000000  0.4485290000000  0.4485290000000 1.0  -0.01
O      2 -0.4317220000000 -0.4317220000000 -0.4317220000000 1.0  -0.23
O      2  0.4968830000000  0.4968830000000  0.4968830000000 1.0  -0.26
S      3 -0.0496460000000  0.4092060000000 -0.5589950000000 1.0  -0.13
S      3 -0.5589950000000 -0.0496460000000  0.4092060000000 1.0  -0.13
S      3  0.4092060000000 -0.5589950000000 -0.0496460000000 1.0  -0.13
S      3 -0.0854140000000  0.0987940000000  0.4640950000000 1.0   0.08
S      3  0.4640950000000 -0.0854140000000  0.0987940000000 1.0   0.08
S      3  0.0987940000000  0.4640950000000 -0.0854140000000 1.0   0.08
S      3 -0.0804790000000 -0.0804790000000 -0.0804790000000 1.0  -0.04
S      3 -0.0183620000000 -0.0183620000000 -0.0183620000000 1.0  -0.06
Fe     4  0.5787030000000  0.0381150000000  0.0481830000000 1.0   3.33
Fe     4  0.0481830000000  0.5787030000000  0.0381150000000 1.0   3.33
Fe     4  0.0381150000000  0.0481830000000  0.5787030000000 1.0   3.33
Fe     4 -0.5012310000000 -0.2603760000000  0.3641030000000 1.0  -3.68
Fe     4  0.3641030000000 -0.5012310000000 -0.2603760000000 1.0  -3.68
Fe     4 -0.2603760000000  0.3641030000000 -0.5012310000000 1.0  -3.68
Fe     4  0.2550280000000  0.2550280000000  0.2550280000000 1.0  -3.72
Fe     4  0.1506320000000  0.1506320000000  0.1506320000000 1.0   3.60
END
