TITL LFSO-Li3FeS2O-201024-131315-993710 0.0159 231.253547 -5.01450936E+003 6.64721 7.76018 14 (C2/c) n - 1
REM
REM Run started: Sat, 24 Oct 2020 16:48:13 +0100 in /lustre/scratch/uccabz1/launch_tmp/launcher_2020-10-24-12-13-14-342250
REM CASTEP 20.1 from code version af48c487+ pr-geom-scf-spinfix Tue Jun 2 15:39:59 2020 +0100
REM Functional Perdew Burke Ernzerhof Relativity Koelling-Harmon Dispersion off
REM Cut-off 340.0000 eV Grid scale 1.7500 Gmax 16.5316 1/A FBSC none
REM MP grid 5 5 2 Offset 0.000 0.000 0.000 No. kpts 15 Spacing 0.07
REM Total runtime: 16129.1 s
REM Overall efficiency: 76.6 %
REM
REM
REM
REM compiler GCC version 4.9.2
REM options -cpp -iprefix /lustre/shared/ucl/apps/gcc/4.9.2/bin/../lib/gcc/x86_64-unknown-linux-gnu/4.9.2/ -mtune=corei7 -march=x86-64 -g -Og
REM COMMAND_LINE
REM seed -652084966 -6994263 570212769 -409256289 -1928449653 -218071295 -58162637 48202691 1640937790 328523794 -206445826 1923107398
REM
REM S 3|1.8|5|6|7|30:31:32(qc=5)
REM O 2|1.5|12|13|15|20:21(qc=5)
REM Li 1|1.3|8|9|10|10U:20(qc=5)
REM Fe 3|2.2|2.0|1.0|8|9|10|40:41:32(qc=5)
REM Fe d:4.0 
REM
CELL 1.54180    6.05496    6.05496   12.18121   96.03375   96.03375  146.25327
LATT -1
SFAC Li O  S  Fe 
Li     1  0.3604630000000  0.0314480000000  0.4228470000000 1.0   0.02
Li     1 -0.0314480000000 -0.3604630000000  0.0771530000000 1.0   0.02
Li     1 -0.3604630000000 -0.0314480000000 -0.4228470000000 1.0   0.02
Li     1  0.0314480000000  0.3604630000000 -0.0771530000000 1.0   0.02
Li     1  0.3093940000000 -0.3093940000000 -0.2500000000000 1.0  -0.03
Li     1 -0.3093940000000  0.3093940000000  0.2500000000000 1.0  -0.03
O      2  0.1160590000000 -0.1160590000000  0.2500000000000 1.0   0.09
O      2 -0.1160590000000  0.1160590000000 -0.2500000000000 1.0   0.09
S      3 -0.6942530000000 -0.0215980000000 -0.0906030000000 1.0  -0.14
S      3  0.0215980000000  0.6942530000000 -0.4093970000000 1.0  -0.14
S      3  0.6942530000000  0.0215980000000  0.0906030000000 1.0  -0.14
S      3 -0.0215980000000 -0.6942530000000  0.4093970000000 1.0  -0.14
Fe     4 -0.0432910000000  0.0432910000000  0.2500000000000 1.0   3.51
Fe     4  0.0432910000000 -0.0432910000000 -0.2500000000000 1.0   3.51
END
