TITL LFSO-Li6FeSO3-201028-074152-f20f5b -0.0519 300.256995 -7.35851701E+003 7.99928 8.24467 22 (R3) n - 1
REM
REM Run started: Wed, 28 Oct 2020 12:16:31 +0000 in /lustre/scratch/uccabz1/launch_tmp/launcher_2020-10-28-07-41-51-292576
REM CASTEP 20.1 from code version af48c487+ pr-geom-scf-spinfix Tue Jun 2 15:39:59 2020 +0100
REM Functional Perdew Burke Ernzerhof Relativity Koelling-Harmon Dispersion off
REM Cut-off 340.0000 eV Grid scale 1.7500 Gmax 16.5316 1/A FBSC none
REM MP grid 3 3 3 Offset 0.000 0.000 0.000 No. kpts 6 Spacing 0.07
REM Total runtime: 16551.7 s
REM Overall efficiency: 95.7 %
REM
REM
REM
REM compiler GCC version 4.9.2
REM options -cpp -iprefix /lustre/shared/ucl/apps/gcc/4.9.2/bin/../lib/gcc/x86_64-unknown-linux-gnu/4.9.2/ -mtune=corei7 -march=x86-64 -g -Og
REM COMMAND_LINE
REM seed 557813896 -130248150 -1818810885 -1747482686 316397555 659587599 1679369803 1211657206 -469319456 910777 1422103948 964508598
REM
REM S 3|1.8|5|6|7|30:31:32(qc=5)
REM O 2|1.5|12|13|15|20:21(qc=5)
REM Li 1|1.3|8|9|10|10U:20(qc=5)
REM Fe 3|2.2|2.0|1.0|8|9|10|40:41:32(qc=5)
REM Fe d:4.0 
REM
CELL 1.54180    6.98191    6.98191    6.98191   72.27109   72.27109   72.27109
LATT -1
SFAC Li O  S  Fe 
Li     1  0.3279450000000 -0.0566400000000 -0.0534920000000 1.0  -0.04
Li     1 -0.0534920000000  0.3279450000000 -0.0566400000000 1.0  -0.04
Li     1 -0.0566400000000 -0.0534920000000  0.3279450000000 1.0  -0.04
Li     1  0.3901000000000  0.2749380000000 -0.2980930000000 1.0   0.01
Li     1 -0.2980930000000  0.3901000000000  0.2749380000000 1.0   0.01
Li     1  0.2749380000000 -0.2980930000000  0.3901000000000 1.0   0.01
Li     1 -0.3452300000000 -0.2045130000000  0.1115040000000 1.0  -0.01
Li     1  0.1115040000000 -0.3452300000000 -0.2045130000000 1.0  -0.01
Li     1 -0.2045130000000  0.1115040000000 -0.3452300000000 1.0  -0.01
Li     1 -0.0701990000000  0.4780650000000 -0.5456960000000 1.0  -0.04
Li     1 -0.5456960000000 -0.0701990000000  0.4780650000000 1.0  -0.04
Li     1  0.4780650000000 -0.5456960000000 -0.0701990000000 1.0  -0.04
O      2  0.2206460000000  0.3829770000000 -0.0658570000000 1.0   0.13
O      2 -0.0658570000000  0.2206460000000  0.3829770000000 1.0   0.13
O      2  0.3829770000000 -0.0658570000000  0.2206460000000 1.0   0.13
O      2 -0.3168470000000 -0.4619030000000  0.0049340000000 1.0   0.09
O      2  0.0049340000000 -0.3168470000000 -0.4619030000000 1.0   0.09
O      2 -0.4619030000000  0.0049340000000 -0.3168470000000 1.0   0.09
S      3 -0.4480940000000 -0.4480940000000 -0.4480940000000 1.0   0.02
S      3 -0.0362660000000 -0.0362660000000 -0.0362660000000 1.0   0.00
Fe     4  0.1980580000000  0.1980580000000  0.1980580000000 1.0   3.71
Fe     4 -0.2711630000000 -0.2711630000000 -0.2711630000000 1.0   3.80
END
