TITL LFSO-Li2Fe4S4O-201025-025056-71a690 0.1647 607.683583 -1.10008612E+004 29.9745 30.7570 22 (C2) n - 1
REM
REM Run started: Mon, 26 Oct 2020 20:31:35 +0000 in /scratch/scratch/uccabz1/launch_tmp/launcher_2020-10-25-02-50-54-033870
REM CASTEP 19.11| from code version Version unavailable
REM Functional Perdew Burke Ernzerhof Relativity Koelling-Harmon Dispersion off
REM Cut-off 340.0000 eV Grid scale 1.7500 Gmax 16.5316 1/A FBSC none
REM MP grid 3 2 3 Offset 0.000 0.000 0.000 No. kpts 9 Spacing 0.07
REM Total runtime: 170747 s
REM Overall efficiency: 94.5833 %
REM
REM
REM
REM compiler GCC version 4.9.2
REM options -cpp -iprefix /scratch/UCL/applications/gcc/4.9.2/bin/../lib/gcc/x86_64-unknown-linux-gnu/4.9.2/ -mtune=corei7 -march=x86-64 -g -O2
REM COMMAND_LINE
REM seed -1996264023 1162807937 1137595334 1859523758 -214117575 -832053648 703009550 -250323544 1137653530 -280770231 -47372816 1996438705
REM
REM S 3|1.8|5|6|7|30:31:32(qc=5)
REM O 2|1.5|12|13|15|20:21(qc=5)
REM Li 1|1.3|8|9|10|10U:20(qc=5)
REM Fe 3|2.2|2.0|1.0|8|9|10|40:41:32(qc=5)
REM Fe d:4.0 
REM
CELL 1.54180    8.27108   10.62495    9.86290  125.07818  117.75074   85.06635
LATT -1
SFAC Li O  S  Fe 
Li     1  0.3820730000000 -0.0265130000000 -0.2595270000000 1.0  -0.03
Li     1  0.3584000000000 -0.2330140000000 -0.2595270000000 1.0  -0.03
Li     1 -0.0200190000000 -0.0864980000000 -0.4290580000000 1.0  -0.02
Li     1 -0.4090390000000 -0.3425610000000 -0.4290580000000 1.0  -0.02
O      2 -0.4463010000000 -0.1569890000000 -0.2597060000000 1.0   0.12
O      2  0.1865950000000 -0.1027170000000 -0.2597060000000 1.0   0.12
S      3 -0.2353450000000 -0.2899900000000  0.2188190000000 1.0   0.08
S      3 -0.5458360000000  0.5088090000000  0.2188190000000 1.0   0.08
S      3 -0.0169160000000 -0.0932330000000  0.0747710000000 1.0  -0.00
S      3  0.0916870000000  0.1680030000000  0.0747710000000 1.0  -0.00
S      3  0.6896500000000  0.4663990000000 -0.3345350000000 1.0   0.17
S      3 -0.0241850000000  0.1990660000000 -0.3345350000000 1.0   0.17
S      3 -0.3957010000000  0.1787880000000 -0.1711000000000 1.0   0.03
S      3  0.2246010000000 -0.3498890000000 -0.1711000000000 1.0   0.03
Fe     4  0.0032780000000 -0.5511880000000 -0.2765400000000 1.0   3.65
Fe     4 -0.2798180000000  0.2746490000000 -0.2765400000000 1.0   3.65
Fe     4  0.1285650000000 -0.0964470000000 -0.0928780000000 1.0   3.57
Fe     4 -0.2214430000000  0.0035680000000 -0.0928780000000 1.0   3.57
Fe     4  0.4190150000000 -0.3608520000000  0.0808310000000 1.0   3.65
Fe     4 -0.3381840000000 -0.5583160000000  0.0808310000000 1.0   3.65
Fe     4 -0.1992060000000 -0.3105560000000 -0.0147420000000 1.0   3.77
Fe     4  0.1844650000000  0.2958140000000 -0.0147420000000 1.0   3.77
END
