TITL LFSO-LiFe3S4O-201028-102900-8b4021 0.0525 159.127882 -4.43772608E+003 9.00003 11.2931 9 (I222) n - 1
REM
REM Run started: Wed, 28 Oct 2020 12:14:09 +0000 in /scratch/scratch/uccabz1/launch_tmp/launcher_2020-10-28-10-28-58-741122
REM CASTEP 19.11| from code version Version unavailable
REM Functional Perdew Burke Ernzerhof Relativity Koelling-Harmon Dispersion off
REM Cut-off 340.0000 eV Grid scale 1.7500 Gmax 16.5316 1/A FBSC none
REM MP grid 4 3 3 Offset 0.000 0.000 0.000 No. kpts 12 Spacing 0.07
REM Total runtime: 7889.66 s
REM Overall efficiency: 92.5 %
REM
REM
REM
REM compiler GCC version 4.9.2
REM options -cpp -iprefix /scratch/UCL/applications/gcc/4.9.2/bin/../lib/gcc/x86_64-unknown-linux-gnu/4.9.2/ -mtune=corei7 -march=x86-64 -g -O2
REM COMMAND_LINE
REM seed -947896493 -1748790566 368939627 -1576164779 -1573003386 462418988 -673884016 1359841951 -749399766 -60741400 343825362 53743266
REM
REM S 3|1.8|5|6|7|30:31:32(qc=5)
REM O 2|1.5|12|13|15|20:21(qc=5)
REM Li 1|1.3|8|9|10|10U:20(qc=5)
REM Fe 3|2.2|2.0|1.0|8|9|10|40:41:32(qc=5)
REM Fe d:4.0 
REM
CELL 1.54180    5.04017    6.28500    6.43898  119.21206  113.04037   90.00000
LATT -1
SFAC Li O  S  Fe 
Li     1  0.5000000000000 -0.5000000000000  0.0000000000000 1.0   0.00
O      2  0.0000000000000  0.5000000000000  0.0000000000000 1.0  -0.05
S      3  0.1403230000000 -0.3415530000000 -0.2882270000000 1.0  -0.34
S      3 -0.5714500000000  0.3415530000000  0.2882270000000 1.0  -0.34
S      3  0.5714500000000  0.0533260000000 -0.2882270000000 1.0  -0.34
S      3 -0.1403230000000 -0.0533260000000  0.2882270000000 1.0  -0.34
Fe     4 -0.1862570000000  0.3137430000000 -0.3725130000000 1.0   3.34
Fe     4  0.1862570000000 -0.3137430000000  0.3725130000000 1.0   3.34
Fe     4  0.0000000000000  0.0000000000000  0.0000000000000 1.0   3.73
END
