TITL LFSO-Li2Fe4S3O2-201026-091033-33ce0e -0.0411 430.522644 -1.12705170E+004 32.0000 32.1648 22 (P21) n - 1
REM
REM Run started: Mon, 26 Oct 2020 13:52:27 +0000 in /lustre/scratch/uccabz1/launch_tmp/launcher_2020-10-26-09-10-31-383449
REM CASTEP 20.1 from code version af48c487+ pr-geom-scf-spinfix Tue Jun 2 15:39:59 2020 +0100
REM Functional Perdew Burke Ernzerhof Relativity Koelling-Harmon Dispersion off
REM Cut-off 340.0000 eV Grid scale 1.7500 Gmax 16.5316 1/A FBSC none
REM MP grid 4 2 2 Offset 0.000 0.000 0.000 No. kpts 4 Spacing 0.07
REM Total runtime: 17105 s
REM Overall efficiency: 74.4444 %
REM
REM
REM
REM compiler GCC version 4.9.2
REM options -cpp -iprefix /lustre/shared/ucl/apps/gcc/4.9.2/bin/../lib/gcc/x86_64-unknown-linux-gnu/4.9.2/ -mtune=corei7 -march=x86-64 -g -Og
REM COMMAND_LINE
REM seed -1350326564 -411799847 -689938599 -237262892 1365346790 -1790203008 -922014341 -61729082 2012815954 150966518 -407194835 -389185863
REM
REM S 3|1.8|5|6|7|30:31:32(qc=5)
REM O 2|1.5|12|13|15|20:21(qc=5)
REM Li 1|1.3|8|9|10|10U:20(qc=5)
REM Fe 3|2.2|2.0|1.0|8|9|10|40:41:32(qc=5)
REM Fe d:4.0 
REM
CELL 1.54180    3.98688    7.98932   13.93754   90.00000   90.00000  104.12487
LATT -1
SFAC Li O  S  Fe 
Li     1  0.1206890000000 -0.1984790000000  0.2485670000000 1.0  -0.00
Li     1 -0.1206890000000  0.1984790000000 -0.2514330000000 1.0  -0.00
Li     1  0.5074070000000  0.4349700000000 -0.2657770000000 1.0  -0.03
Li     1 -0.5074070000000 -0.4349700000000  0.2342230000000 1.0  -0.03
O      2 -0.1409680000000 -0.4596960000000 -0.0154350000000 1.0   0.27
O      2  0.1409680000000  0.4596960000000  0.4845650000000 1.0   0.27
O      2  0.0169460000000  0.4423440000000 -0.2449690000000 1.0   0.12
O      2 -0.0169460000000 -0.4423440000000  0.2550310000000 1.0   0.12
S      3  0.2868310000000 -0.0985750000000 -0.0925710000000 1.0   0.15
S      3 -0.2868310000000  0.0985750000000  0.4074290000000 1.0   0.15
S      3 -0.3278200000000 -0.2721310000000 -0.3492510000000 1.0   0.13
S      3  0.3278200000000  0.2721310000000  0.1507490000000 1.0   0.13
S      3  0.3413540000000  0.1439130000000 -0.3534000000000 1.0   0.15
S      3 -0.3413540000000 -0.1439130000000  0.1466000000000 1.0   0.15
Fe     4 -0.2279640000000 -0.0027050000000 -0.4239480000000 1.0   3.80
Fe     4  0.2279640000000  0.0027050000000  0.0760520000000 1.0   3.80
Fe     4 -0.0787090000000  0.3984150000000  0.3595990000000 1.0   3.80
Fe     4  0.0787090000000 -0.3984150000000 -0.1404010000000 1.0   3.80
Fe     4  0.0973310000000 -0.4234260000000 -0.3927380000000 1.0   3.88
Fe     4 -0.0973310000000  0.4234260000000  0.1072620000000 1.0   3.88
Fe     4 -0.3304040000000 -0.2543220000000 -0.0159950000000 1.0   3.75
Fe     4  0.3304040000000  0.2543220000000  0.4840050000000 1.0   3.75
END
