TITL LFSO-Li5FeSO3-201027-025619-3b119a -0.0179 278.015055 -6.95881025E+003 9.99999 10.0387 20 (C2/c) n - 1
REM
REM Run started: Tue, 27 Oct 2020 13:22:19 +0000 in /lustre/scratch/uccabz1/launch_tmp/launcher_2020-10-27-02-56-17-813747
REM CASTEP 20.1 from code version af48c487+ pr-geom-scf-spinfix Tue Jun 2 15:39:59 2020 +0100
REM Functional Perdew Burke Ernzerhof Relativity Koelling-Harmon Dispersion off
REM Cut-off 340.0000 eV Grid scale 1.7500 Gmax 16.5316 1/A FBSC none
REM MP grid 4 3 2 Offset 0.000 0.000 0.000 No. kpts 10 Spacing 0.07
REM Total runtime: 13513.3 s
REM Overall efficiency: 74.9231 %
REM
REM
REM
REM compiler GCC version 4.9.2
REM options -cpp -iprefix /lustre/shared/ucl/apps/gcc/4.9.2/bin/../lib/gcc/x86_64-unknown-linux-gnu/4.9.2/ -mtune=corei7 -march=x86-64 -g -Og
REM COMMAND_LINE
REM seed 1552224849 -733113880 2075373195 2124813706 -1632193275 1422368380 1552267769 -519517805 1081482671 515680177 159760569 -1993623087
REM
REM S 3|1.8|5|6|7|30:31:32(qc=5)
REM O 2|1.5|12|13|15|20:21(qc=5)
REM Li 1|1.3|8|9|10|10U:20(qc=5)
REM Fe 3|2.2|2.0|1.0|8|9|10|40:41:32(qc=5)
REM Fe d:4.0 
REM
CELL 1.54180    5.05099    9.51790    8.95523   57.89879   69.88308   49.66858
LATT -1
SFAC Li O  S  Fe 
Li     1  0.7850230000000 -0.3306770000000 -0.0351100000000 1.0  -0.01
Li     1 -0.2850230000000  0.3657870000000 -0.0351100000000 1.0  -0.01
Li     1 -0.7850230000000  0.3306770000000  0.0351100000000 1.0  -0.01
Li     1  0.2850230000000 -0.3657870000000  0.0351100000000 1.0  -0.01
Li     1 -0.1848490000000  0.1888970000000  0.3117010000000 1.0   0.01
Li     1  0.6848490000000 -0.5005980000000  0.3117010000000 1.0   0.01
Li     1  0.1848490000000 -0.1888970000000 -0.3117010000000 1.0   0.01
Li     1 -0.6848490000000  0.5005980000000 -0.3117010000000 1.0   0.01
Li     1 -0.2500000000000 -0.1363190000000  0.2726380000000 1.0  -0.03
Li     1  0.2500000000000  0.1363190000000 -0.2726380000000 1.0  -0.03
O      2  0.2763910000000 -0.1136040000000 -0.0915440000000 1.0   0.38
O      2  0.2236090000000  0.2051480000000 -0.0915440000000 1.0   0.38
O      2 -0.2763910000000  0.1136040000000  0.0915440000000 1.0   0.38
O      2 -0.2236090000000 -0.2051480000000  0.0915440000000 1.0   0.38
O      2 -0.2500000000000  0.4320000000000 -0.8639990000000 1.0   0.03
O      2  0.2500000000000 -0.4320000000000  0.8639990000000 1.0   0.03
S      3  0.2500000000000 -0.2019830000000  0.4039660000000 1.0   0.17
S      3 -0.2500000000000  0.2019830000000 -0.4039660000000 1.0   0.17
Fe     4  0.2500000000000 -0.0433490000000  0.0866970000000 1.0   4.07
Fe     4 -0.2500000000000  0.0433490000000 -0.0866970000000 1.0   4.07
END
