TITL LFSO-Li2Fe4S3O2-201026-172213-b6034c 0.0257 187.025487 -5.63619987E+003 16.0000 16.0928 11 (P-1) n - 1
REM
REM Run started: Mon, 26 Oct 2020 21:03:36 +0000 in /lustre/scratch/uccabz1/launch_tmp/launcher_2020-10-26-17-22-11-974415
REM CASTEP 20.1 from code version af48c487+ pr-geom-scf-spinfix Tue Jun 2 15:39:59 2020 +0100
REM Functional Perdew Burke Ernzerhof Relativity Koelling-Harmon Dispersion off
REM Cut-off 340.0000 eV Grid scale 1.7500 Gmax 16.5316 1/A FBSC none
REM MP grid 6 2 3 Offset 0.000 0.000 0.000 No. kpts 18 Spacing 0.07
REM Total runtime: 13830.7 s
REM Overall efficiency: 86.5556 %
REM
REM
REM
REM compiler GCC version 4.9.2
REM options -cpp -iprefix /lustre/shared/ucl/apps/gcc/4.9.2/bin/../lib/gcc/x86_64-unknown-linux-gnu/4.9.2/ -mtune=corei7 -march=x86-64 -g -Og
REM COMMAND_LINE
REM seed 1720239689 1066970077 1601102106 -505032385 -82242867 1046614521 -1939847340 203648221 -734165304 453619727 628087424 -998740886
REM
REM S 3|1.8|5|6|7|30:31:32(qc=5)
REM O 2|1.5|12|13|15|20:21(qc=5)
REM Li 1|1.3|8|9|10|10U:20(qc=5)
REM Fe 3|2.2|2.0|1.0|8|9|10|40:41:32(qc=5)
REM Fe d:4.0 
REM
CELL 1.54180    3.63388   10.23723    7.59173  115.54017  126.68675   91.94491
LATT -1
SFAC Li O  S  Fe 
Li     1  0.2758770000000 -0.5731430000000 -0.4720130000000 1.0  -0.03
Li     1 -0.2758770000000  0.5731430000000  0.4720130000000 1.0  -0.03
O      2  0.5446960000000  0.3482290000000  0.3387210000000 1.0   0.19
O      2 -0.5446960000000 -0.3482290000000 -0.3387210000000 1.0   0.19
S      3 -0.4555570000000 -0.2512630000000  0.2837390000000 1.0   0.12
S      3  0.4555570000000  0.2512630000000 -0.2837390000000 1.0   0.12
S      3  0.5000000000000  0.0000000000000  0.0000000000000 1.0   0.10
Fe     4 -0.5117450000000  0.1596560000000  0.3590610000000 1.0   3.84
Fe     4  0.5117450000000 -0.1596560000000 -0.3590610000000 1.0   3.84
Fe     4 -0.2665740000000 -0.2410180000000  0.0285720000000 1.0   3.83
Fe     4  0.2665740000000  0.2410180000000 -0.0285720000000 1.0   3.83
END
