TITL LFSO-Li3FeS2O-201024-231756-46099f 0.0967 615.627617 -7.51399477E+003 14.6977 14.9511 21 (P3) n - 1
REM
REM Run started: Sun, 25 Oct 2020 02:37:36 +0000 in /lustre/scratch/uccabz1/launch_tmp/launcher_2020-10-24-22-17-54-380494
REM CASTEP 20.1 from code version af48c487+ pr-geom-scf-spinfix Tue Jun 2 15:39:59 2020 +0100
REM Functional Perdew Burke Ernzerhof Relativity Koelling-Harmon Dispersion off
REM Cut-off 340.0000 eV Grid scale 1.7500 Gmax 16.5316 1/A FBSC none
REM MP grid 3 3 1 Offset 0.000 0.000 0.000 No. kpts 3 Spacing 0.07
REM Total runtime: 15708.7 s
REM Overall efficiency: 79.8571 %
REM
REM
REM
REM compiler GCC version 4.9.2
REM options -cpp -iprefix /lustre/shared/ucl/apps/gcc/4.9.2/bin/../lib/gcc/x86_64-unknown-linux-gnu/4.9.2/ -mtune=corei7 -march=x86-64 -g -Og
REM COMMAND_LINE
REM seed -788032909 185065518 -980341282 -2030494371 -1219091548 1416757720 -799089427 -395529863 -2096572072 -994443894 938003620 1177329194
REM
REM S 3|1.8|5|6|7|30:31:32(qc=5)
REM O 2|1.5|12|13|15|20:21(qc=5)
REM Li 1|1.3|8|9|10|10U:20(qc=5)
REM Fe 3|2.2|2.0|1.0|8|9|10|40:41:32(qc=5)
REM Fe d:4.0 
REM
CELL 1.54180    7.01475    7.01475   14.44653   90.00000   90.00000  120.00000
LATT -1
SFAC Li O  S  Fe 
Li     1 -0.3281730000000  0.0050850000000 -0.3295010000000 1.0   0.01
Li     1 -0.0050850000000 -0.3332580000000 -0.3295010000000 1.0   0.01
Li     1  0.3332580000000  0.3281730000000 -0.3295010000000 1.0   0.01
Li     1  0.0190660000000 -0.3057870000000  0.2663500000000 1.0   0.01
Li     1  0.3057870000000  0.3248530000000  0.2663500000000 1.0   0.01
Li     1 -0.3248530000000 -0.0190660000000  0.2663500000000 1.0   0.01
Li     1  0.3486320000000  0.0000590000000  0.0780940000000 1.0  -0.01
Li     1 -0.0000590000000  0.3485730000000  0.0780940000000 1.0  -0.01
Li     1 -0.3485730000000 -0.3486320000000  0.0780940000000 1.0  -0.01
O      2  0.0243070000000  0.3614320000000 -0.0444310000000 1.0   0.58
O      2 -0.3614320000000 -0.3371250000000 -0.0444310000000 1.0   0.58
O      2  0.3371250000000 -0.0243070000000 -0.0444310000000 1.0   0.58
S      3 -0.0229150000000  0.3420680000000  0.2347140000000 1.0   0.37
S      3 -0.3420680000000 -0.3649830000000  0.2347140000000 1.0   0.37
S      3  0.3649830000000  0.0229150000000  0.2347140000000 1.0   0.37
S      3  0.0049580000000  0.3377990000000 -0.3068370000000 1.0   0.17
S      3 -0.3377990000000 -0.3328410000000 -0.3068370000000 1.0   0.17
S      3  0.3328410000000 -0.0049580000000 -0.3068370000000 1.0   0.17
Fe     4 -0.4145230000000 -0.3358660000000 -0.1597060000000 1.0   3.76
Fe     4  0.3358660000000 -0.0786570000000 -0.1597060000000 1.0   3.76
Fe     4  0.0786570000000  0.4145230000000 -0.1597060000000 1.0   3.76
END
