TITL LFSO-Li5FeSO3-201026-115711-34bc2b -0.0392 345.604425 -6.95493108E+003 8.05484 8.53867 20 (P3) n - 1
REM
REM Run started: Mon, 26 Oct 2020 15:35:35 +0000 in /scratch/scratch/uccabz1/launch_tmp/launcher_2020-10-26-11-58-34-261093
REM CASTEP 19.11| from code version Version unavailable
REM Functional Perdew Burke Ernzerhof Relativity Koelling-Harmon Dispersion off
REM Cut-off 340.0000 eV Grid scale 1.7500 Gmax 16.5316 1/A FBSC none
REM MP grid 3 3 3 Offset 0.000 0.000 0.000 No. kpts 8 Spacing 0.07
REM Total runtime: 14111.1 s
REM Overall efficiency: 78.3077 %
REM
REM
REM
REM compiler GCC version 4.9.2
REM options -cpp -iprefix /lustre/shared/ucl/apps/gcc/4.9.2/bin/../lib/gcc/x86_64-unknown-linux-gnu/4.9.2/ -mtune=corei7 -march=x86-64 -g -Og
REM COMMAND_LINE
REM seed -1134857233 -537971476 806073275 1332510141 506949949 -406422159 779280045 -891245676 1601221746 -520192072 -1492349922 -135392631
REM
REM S 3|1.8|5|6|7|30:31:32(qc=5)
REM O 2|1.5|12|13|15|20:21(qc=5)
REM Li 1|1.3|8|9|10|10U:20(qc=5)
REM Fe 3|2.2|2.0|1.0|8|9|10|40:41:32(qc=5)
REM Fe d:4.0 
REM
CELL 1.54180    6.57758    7.78917    7.78917  120.00000   90.00000   90.00000
LATT -1
SFAC Li O  S  Fe 
Li     1 -0.2877480000000  0.0360930000000 -0.5135020000000 1.0  -0.02
Li     1 -0.2877480000000  0.5135020000000  0.5495950000000 1.0  -0.02
Li     1 -0.2877480000000 -0.5495950000000 -0.0360930000000 1.0  -0.02
Li     1 -0.0146750000000 -0.2753050000000 -0.0478180000000 1.0   0.01
Li     1 -0.0146750000000  0.0478180000000 -0.2274870000000 1.0   0.01
Li     1 -0.0146750000000  0.2274870000000  0.2753050000000 1.0   0.01
Li     1 -0.5098940000000  0.1818350000000  0.2632030000000 1.0  -0.00
Li     1 -0.5098940000000 -0.2632030000000 -0.0813680000000 1.0  -0.00
Li     1 -0.5098940000000  0.0813680000000 -0.1818350000000 1.0  -0.00
Li     1 -0.1644920000000  0.3333330000000 -0.3333330000000 1.0   0.01
O      2 -0.2683340000000  0.1747700000000 -0.2248360000000 1.0  -0.05
O      2 -0.2683340000000  0.2248360000000  0.3996060000000 1.0  -0.05
O      2 -0.2683340000000 -0.3996060000000 -0.1747700000000 1.0  -0.05
O      2  0.0737620000000 -0.4992080000000 -0.6012790000000 1.0   0.27
O      2  0.0737620000000  0.6012790000000  0.1020710000000 1.0   0.27
O      2  0.0737620000000 -0.1020710000000  0.4992080000000 1.0   0.27
S      3  0.2494550000000 -0.0000000000000 -0.0000000000000 1.0  -0.01
S      3 -0.4120710000000 -0.3333330000000  0.3333330000000 1.0   0.05
Fe     4 -0.0805640000000 -0.3333330000000  0.3333330000000 1.0   3.64
Fe     4  0.2520760000000 -0.3333330000000  0.3333330000000 1.0   3.77
END
