TITL LFSO-Li5FeS2O2-201026-015508-75b35f 0.0350 256.051059 -3.34056058E+003 4.90273 5.09560 10 (R3) n - 1
REM
REM Run started: Mon, 26 Oct 2020 05:57:17 +0000 in /scratch/scratch/uccabz1/launch_tmp/launcher_2020-10-26-01-55-06-748322
REM CASTEP 19.11| from code version Version unavailable
REM Functional Perdew Burke Ernzerhof Relativity Koelling-Harmon Dispersion off
REM Cut-off 340.0000 eV Grid scale 1.7500 Gmax 16.5316 1/A FBSC none
REM MP grid 3 3 3 Offset 0.000 0.000 0.000 No. kpts 6 Spacing 0.07
REM Total runtime: 16188.9 s
REM Overall efficiency: 96.3333 %
REM
REM
REM
REM compiler GCC version 4.9.2
REM options -cpp -iprefix /scratch/UCL/applications/gcc/4.9.2/bin/../lib/gcc/x86_64-unknown-linux-gnu/4.9.2/ -mtune=corei7 -march=x86-64 -g -O2
REM COMMAND_LINE
REM seed -697973097 285772380 -1026645683 -1967019566 1167400981 -983108156 1820949328 1675928123 60095582 37719116 -1355704646 -1271366008
REM
REM S 3|1.8|5|6|7|30:31:32(qc=5)
REM O 2|1.5|12|13|15|20:21(qc=5)
REM Li 1|1.3|8|9|10|10U:20(qc=5)
REM Fe 3|2.2|2.0|1.0|8|9|10|40:41:32(qc=5)
REM Fe d:4.0 
REM
CELL 1.54180    6.80664    6.80664    7.49456   62.99261   62.99261   60.00000
LATT -1
SFAC Li O  S  Fe 
Li     1  0.1835140000000 -0.3517060000000 -0.0803350000000 1.0  -0.01
Li     1 -0.3517060000000  0.2485280000000 -0.0803350000000 1.0  -0.01
Li     1  0.2485280000000  0.1835140000000 -0.0803350000000 1.0  -0.01
Li     1 -0.0928130000000 -0.0928130000000  0.2784390000000 1.0  -0.05
Li     1 -0.2765070000000 -0.2765070000000  0.8295210000000 1.0  -0.03
O      2 -0.1853430000000 -0.1853430000000  0.5560290000000 1.0   0.85
O      2  0.3943790000000  0.3943790000000 -1.1831360000000 1.0   0.10
S      3 -0.3960950000000 -0.3960950000000  1.1882840000000 1.0   0.18
S      3  0.0276190000000  0.0276190000000 -0.0828570000000 1.0   0.04
Fe     4  0.4917130000000  0.4917130000000 -1.4751390000000 1.0   3.85
END
