TITL LFSO-Li4Fe2S3O-201026-130417-d7bf4b -0.0421 344.483302 -7.74776780E+003 16.0000 16.1166 20 (P21) n - 1
REM
REM Run started: Mon, 26 Oct 2020 20:33:55 +0000 in /lustre/scratch/uccabz1/launch_tmp/launcher_2020-10-26-13-04-15-055880
REM CASTEP 20.1 from code version af48c487+ pr-geom-scf-spinfix Tue Jun 2 15:39:59 2020 +0100
REM Functional Perdew Burke Ernzerhof Relativity Koelling-Harmon Dispersion off
REM Cut-off 340.0000 eV Grid scale 1.7500 Gmax 16.5316 1/A FBSC none
REM MP grid 4 2 2 Offset 0.000 0.000 0.000 No. kpts 4 Spacing 0.07
REM Total runtime: 27210.8 s
REM Overall efficiency: 76.6667 %
REM
REM
REM
REM compiler GCC version 4.9.2
REM options -cpp -iprefix /lustre/shared/ucl/apps/gcc/4.9.2/bin/../lib/gcc/x86_64-unknown-linux-gnu/4.9.2/ -mtune=corei7 -march=x86-64 -g -Og
REM COMMAND_LINE
REM seed 777384321 1147341068 1158091524 -1928692536 504609075 1285529078 1023971926 -538550581 -61113456 -1346847130 947459160 1200961559
REM
REM S 3|1.8|5|6|7|30:31:32(qc=5)
REM O 2|1.5|12|13|15|20:21(qc=5)
REM Li 1|1.3|8|9|10|10U:20(qc=5)
REM Fe 3|2.2|2.0|1.0|8|9|10|40:41:32(qc=5)
REM Fe d:4.0 
REM
CELL 1.54180    3.94578    9.13792   10.41734   90.00000  113.48973   90.00000
LATT -1
SFAC Li O  S  Fe 
Li     1  0.3302860000000  0.3491620000000 -0.4179070000000 1.0   0.03
Li     1 -0.3302860000000 -0.1508380000000  0.4179070000000 1.0   0.03
Li     1  0.4215110000000 -0.5102860000000  0.1875080000000 1.0  -0.03
Li     1 -0.4215110000000 -0.0102860000000 -0.1875080000000 1.0  -0.03
Li     1 -0.2885320000000 -0.4292250000000 -0.5295760000000 1.0   0.00
Li     1  0.2885320000000  0.0707750000000  0.5295760000000 1.0   0.00
Li     1  0.0467350000000 -0.3108700000000  0.3025180000000 1.0  -0.01
Li     1 -0.0467350000000  0.1891300000000 -0.3025180000000 1.0  -0.01
O      2  0.4649720000000  0.1720800000000 -0.2905430000000 1.0   0.08
O      2 -0.4649720000000 -0.3279200000000  0.2905430000000 1.0   0.08
S      3 -0.0100010000000  0.4574790000000 -0.2587360000000 1.0   0.11
S      3  0.0100010000000 -0.0425210000000  0.2587360000000 1.0   0.11
S      3  0.1780600000000 -0.0963090000000 -0.0911760000000 1.0   0.06
S      3 -0.1780600000000  0.4036910000000  0.0911760000000 1.0   0.06
S      3  0.3446130000000 -0.2298430000000 -0.4183180000000 1.0   0.08
S      3 -0.3446130000000  0.2701570000000  0.4183180000000 1.0   0.08
Fe     4 -0.0179940000000  0.2158250000000  0.2591530000000 1.0   3.84
Fe     4  0.0179940000000 -0.2841750000000 -0.2591530000000 1.0   3.84
Fe     4  0.3920800000000 -0.1685730000000  0.1434280000000 1.0   3.84
Fe     4 -0.3920800000000  0.3314270000000 -0.1434280000000 1.0   3.84
END
