TITL LFSO-Li5FeSO3-201026-210531-8a7e09 0.0251 155.263043 -3.47982544E+003 5.00000 5.04235 10 (Cm) n - 1
REM
REM Run started: Mon, 26 Oct 2020 21:53:17 +0000 in /lustre/scratch/uccabz1/launch_tmp/launcher_2020-10-26-21-05-30-098163
REM CASTEP 20.1 from code version af48c487+ pr-geom-scf-spinfix Tue Jun 2 15:39:59 2020 +0100
REM Functional Perdew Burke Ernzerhof Relativity Koelling-Harmon Dispersion off
REM Cut-off 340.0000 eV Grid scale 1.7500 Gmax 16.5316 1/A FBSC none
REM MP grid 3 3 3 Offset 0.000 0.000 0.000 No. kpts 10 Spacing 0.07
REM Total runtime: 3002.08 s
REM Overall efficiency: 77.9167 %
REM
REM
REM
REM compiler GCC version 4.9.2
REM options -cpp -iprefix /lustre/shared/ucl/apps/gcc/4.9.2/bin/../lib/gcc/x86_64-unknown-linux-gnu/4.9.2/ -mtune=corei7 -march=x86-64 -g -Og
REM COMMAND_LINE
REM seed 1116882609 199564613 -11122585 923640026 -569790433 -622284547 -307612561 -1379792522 682782270 -2023693558 551587900 -2080030667
REM
REM S 3|1.8|5|6|7|30:31:32(qc=5)
REM O 2|1.5|12|13|15|20:21(qc=5)
REM Li 1|1.3|8|9|10|10U:20(qc=5)
REM Fe 3|2.2|2.0|1.0|8|9|10|40:41:32(qc=5)
REM Fe d:4.0 
REM
CELL 1.54180    5.66757    5.66757    5.40139   73.97105   73.97105   72.21970
LATT -1
SFAC Li O  S  Fe 
Li     1 -0.5706220000000 -0.1700340000000  0.2853350000000 1.0   0.01
Li     1 -0.1700340000000 -0.5706220000000  0.2853350000000 1.0   0.01
Li     1  0.0435820000000 -0.3716710000000 -0.1675490000000 1.0  -0.04
Li     1 -0.3716710000000  0.0435820000000 -0.1675490000000 1.0  -0.04
Li     1  0.1282370000000  0.1282370000000  0.6137490000000 1.0   0.05
O      2  0.3082330000000 -0.2129090000000 -0.3541540000000 1.0   0.27
O      2 -0.2129090000000  0.3082330000000 -0.3541540000000 1.0   0.27
O      2 -0.3051760000000 -0.3051760000000  0.0099590000000 1.0   0.20
S      3  0.2808280000000  0.2808280000000  0.1187190000000 1.0   0.20
Fe     4  0.5433500000000  0.5433500000000 -0.1654120000000 1.0   4.05
END
