TITL LFSO-Li2Fe3S2O2-201022-094636-3f37a5 0.0545 176.955967 -4.46845392E+003 12.0000 12.1138 9 (R3) n - 1
REM
REM Run started: Thu, 22 Oct 2020 11:43:06 +0100 in /scratch/scratch/uccabz1/launch_tmp/launcher_2020-10-22-08-46-34-516328
REM CASTEP 19.11| from code version Version unavailable
REM Functional Perdew Burke Ernzerhof Relativity Koelling-Harmon Dispersion off
REM Cut-off 340.0000 eV Grid scale 1.7500 Gmax 16.5316 1/A FBSC none
REM MP grid 3 3 3 Offset 0.000 0.000 0.000 No. kpts 6 Spacing 0.07
REM Total runtime: 7201.77 s
REM Overall efficiency: 95.5714 %
REM
REM
REM
REM compiler GCC version 4.9.2
REM options -cpp -iprefix /scratch/UCL/applications/gcc/4.9.2/bin/../lib/gcc/x86_64-unknown-linux-gnu/4.9.2/ -mtune=corei7 -march=x86-64 -g -O2
REM COMMAND_LINE
REM seed 1353978856 1334196080 -1938210414 -1802831545 -1801991359 1718729660 -1068294412 400131553 907776299 173524805 -1630340599 16915319
REM
REM S 3|1.8|5|6|7|30:31:32(qc=5)
REM O 2|1.5|12|13|15|20:21(qc=5)
REM Li 1|1.3|8|9|10|10U:20(qc=5)
REM Fe 3|2.2|2.0|1.0|8|9|10|40:41:32(qc=5)
REM Fe d:4.0 
REM
CELL 1.54180    7.08817    7.08817    7.08817   47.46813   47.46813   47.46813
LATT -1
SFAC Li O  S  Fe 
Li     1 -0.0497440000000 -0.0497440000000 -0.0497440000000 1.0  -0.08
Li     1 -0.2754810000000 -0.2754810000000 -0.2754810000000 1.0  -0.03
O      2  0.4384720000000  0.4384720000000  0.4384720000000 1.0   0.33
O      2 -0.1598200000000 -0.1598200000000 -0.1598200000000 1.0   0.14
S      3 -0.4027720000000 -0.4027720000000 -0.4027720000000 1.0   0.12
S      3  0.0898510000000  0.0898510000000  0.0898510000000 1.0   0.07
Fe     4 -0.2128060000000  0.2050610000000  0.4956920000000 1.0   3.82
Fe     4  0.4956920000000 -0.2128060000000  0.2050610000000 1.0   3.82
Fe     4  0.2050610000000  0.4956920000000 -0.2128060000000 1.0   3.82
END
