TITL LFSO-Li6FeSO3-201028-080307-65a232 0.0833 191.267913 -3.67571831E+003 -3.99945 4.07078 11 (P3) n - 1
REM
REM Run started: Wed, 28 Oct 2020 08:31:02 +0000 in /lustre/scratch/uccabz1/launch_tmp/launcher_2020-10-28-08-03-05-553094
REM CASTEP 20.1 from code version af48c487+ pr-geom-scf-spinfix Tue Jun 2 15:39:59 2020 +0100
REM Functional Perdew Burke Ernzerhof Relativity Koelling-Harmon Dispersion off
REM Cut-off 340.0000 eV Grid scale 1.7500 Gmax 16.5316 1/A FBSC none
REM MP grid 4 3 3 Offset 0.000 0.000 0.000 No. kpts 10 Spacing 0.07
REM Total runtime: 1701.62 s
REM Overall efficiency: 76.25 %
REM
REM
REM
REM compiler GCC version 4.9.2
REM options -cpp -iprefix /lustre/shared/ucl/apps/gcc/4.9.2/bin/../lib/gcc/x86_64-unknown-linux-gnu/4.9.2/ -mtune=corei7 -march=x86-64 -g -Og
REM COMMAND_LINE
REM seed -900353632 -2010367251 1639673079 449892981 -7868444 504457996 115367795 -1245105974 -1395944946 2017971468 54348009 -1710876669
REM
REM S 3|1.8|5|6|7|30:31:32(qc=5)
REM O 2|1.5|12|13|15|20:21(qc=5)
REM Li 1|1.3|8|9|10|10U:20(qc=5)
REM Fe 3|2.2|2.0|1.0|8|9|10|40:41:32(qc=5)
REM Fe d:4.0 
REM
CELL 1.54180    4.15728    7.28871    7.28871  120.00000   90.00000   90.00000
LATT -1
SFAC Li O  S  Fe 
Li     1  0.6767390000000  0.0235060000000 -0.2011160000000 1.0  -0.00
Li     1  0.6767390000000  0.2011160000000  0.2246210000000 1.0  -0.00
Li     1  0.6767390000000 -0.2246210000000 -0.0235060000000 1.0  -0.00
Li     1  0.1508890000000  0.3290230000000  0.0280830000000 1.0   0.01
Li     1  0.1508890000000 -0.0280830000000  0.3009400000000 1.0   0.01
Li     1  0.1508890000000 -0.3009400000000 -0.3290230000000 1.0   0.01
O      2 -0.3348710000000  0.2864580000000  0.0279990000000 1.0  -0.07
O      2 -0.3348710000000 -0.0279990000000  0.2584590000000 1.0  -0.07
O      2 -0.3348710000000 -0.2584590000000 -0.2864580000000 1.0  -0.07
S      3  0.1550800000000 -0.3333330000000  0.3333330000000 1.0  -0.25
Fe     4  0.6542470000000 -0.3333330000000  0.3333330000000 1.0  -3.55
END
