TITL LFSO-Li6FeSO3-201028-070502-3d5972 0.0064 243.472572 -7.36025757E+003 7.99980 8.11516 22 (P21/c) n - 1
REM
REM Run started: Wed, 28 Oct 2020 09:04:36 +0000 in /scratch/scratch/uccabz1/launch_tmp/launcher_2020-10-28-07-05-01-311945
REM CASTEP 19.11| from code version Version unavailable
REM Functional Perdew Burke Ernzerhof Relativity Koelling-Harmon Dispersion off
REM Cut-off 340.0000 eV Grid scale 1.7500 Gmax 16.5316 1/A FBSC none
REM MP grid 3 2 3 Offset 0.000 0.000 0.000 No. kpts 6 Spacing 0.07
REM Total runtime: 7788.32 s
REM Overall efficiency: 84.75 %
REM
REM
REM
REM compiler GCC version 4.9.2
REM options -cpp -iprefix /scratch/UCL/applications/gcc/4.9.2/bin/../lib/gcc/x86_64-unknown-linux-gnu/4.9.2/ -mtune=corei7 -march=x86-64 -g -O2
REM COMMAND_LINE
REM seed 368400841 2018884263 1024375122 -911095917 -1026803697 -1744327499 1523088780 1791505194 -514216057 -2038811931 -775024441 -365164027
REM
REM S 3|1.8|5|6|7|30:31:32(qc=5)
REM O 2|1.5|12|13|15|20:21(qc=5)
REM Li 1|1.3|8|9|10|10U:20(qc=5)
REM Fe 3|2.2|2.0|1.0|8|9|10|40:41:32(qc=5)
REM Fe d:4.0 
REM
CELL 1.54180    5.38374    7.31335    6.18400   90.00000   90.00000   89.45329
LATT -1
SFAC Li O  S  Fe 
Li     1  0.3174370000000 -0.1890700000000  0.3303280000000 1.0  -0.04
Li     1  0.1825630000000 -0.3109300000000 -0.1696720000000 1.0  -0.04
Li     1 -0.3174370000000  0.1890700000000 -0.3303280000000 1.0  -0.04
Li     1 -0.1825630000000  0.3109300000000  0.1696720000000 1.0  -0.04
Li     1  0.1532210000000  0.2890620000000 -0.1406530000000 1.0  -0.04
Li     1  0.3467790000000  0.2109380000000  0.3593470000000 1.0  -0.04
Li     1 -0.1532210000000 -0.2890620000000  0.1406530000000 1.0  -0.04
Li     1 -0.3467790000000 -0.2109380000000 -0.3593470000000 1.0  -0.04
Li     1 -0.3246940000000  0.5095310000000 -0.1103530000000 1.0   0.01
Li     1 -0.1753060000000 -0.0095310000000  0.3896470000000 1.0   0.01
Li     1  0.3246940000000 -0.5095310000000  0.1103530000000 1.0   0.01
Li     1  0.1753060000000  0.0095310000000 -0.3896470000000 1.0   0.01
O      2 -0.4963510000000 -0.2675640000000 -0.0088170000000 1.0   0.08
O      2 -0.0036490000000 -0.2324360000000  0.4911830000000 1.0   0.08
O      2  0.4963510000000  0.2675640000000  0.0088170000000 1.0   0.08
O      2  0.0036490000000  0.2324360000000 -0.4911830000000 1.0   0.08
O      2  0.0000000000000 -0.5000000000000 -0.0000000000000 1.0   0.04
O      2 -0.5000000000000  0.0000000000000 -0.5000000000000 1.0   0.04
S      3  0.0000000000000  0.0000000000000 -0.0000000000000 1.0   0.09
S      3 -0.5000000000000 -0.5000000000000 -0.5000000000000 1.0   0.09
Fe     4 -0.5000000000000  0.0000000000000 -0.0000000000000 1.0   3.86
Fe     4  0.0000000000000 -0.5000000000000 -0.5000000000000 1.0   3.86
END
