TITL LFSO-LiFe3S4O-201028-135031-bd770d -0.0212 365.607609 -8.87666979E+003 -22.0001 23.5100 18 (Cm) n - 1
REM
REM Run started: Thu, 29 Oct 2020 11:15:05 +0000 in /scratch/scratch/uccabz1/launch_tmp/launcher_2020-10-29-06-28-54-369393
REM CASTEP 19.11| from code version Version unavailable
REM Functional Perdew Burke Ernzerhof Relativity Koelling-Harmon Dispersion off
REM Cut-off 340.0000 eV Grid scale 1.7500 Gmax 16.5316 1/A FBSC none
REM MP grid 3 3 2 Offset 0.000 0.000 0.000 No. kpts 8 Spacing 0.07
REM Total runtime: 77711.8 s
REM Overall efficiency: 98.4167 %
REM
REM
REM
REM compiler GCC version 4.9.2
REM options -cpp -iprefix /scratch/UCL/applications/gcc/4.9.2/bin/../lib/gcc/x86_64-unknown-linux-gnu/4.9.2/ -mtune=corei7 -march=x86-64 -g -O2
REM COMMAND_LINE
REM seed -1773695111 -1792566241 1163545817 -2116537096 1845050639 1179217894 37481833 1004189263 -765753498 281474521 -1854142009 -1980051486
REM
REM S 3|1.8|5|6|7|30:31:32(qc=5)
REM O 2|1.5|12|13|15|20:21(qc=5)
REM Li 1|1.3|8|9|10|10U:20(qc=5)
REM Fe 3|2.2|2.0|1.0|8|9|10|40:41:32(qc=5)
REM Fe d:4.0 
REM
CELL 1.54180    6.97804    7.30412    9.09021   78.50202   67.42943   58.71204
LATT -1
SFAC Li O  S  Fe 
Li     1  0.4653610000000  0.0210170000000  0.3473740000000 1.0   0.04
Li     1 -0.1872650000000  0.0210170000000 -0.3473740000000 1.0   0.04
O      2  0.0974950000000 -0.2972930000000  0.4043330000000 1.0  -0.17
O      2  0.5018290000000 -0.2972930000000 -0.4043330000000 1.0  -0.17
S      3 -0.1227510000000  0.0366990000000  0.1244590000000 1.0   0.10
S      3  0.0017070000000  0.0366990000000 -0.1244590000000 1.0   0.10
S      3  0.0286020000000  0.2061910000000 -0.5185090000000 1.0   0.01
S      3  0.5100940000000  0.2061910000000  0.5185090000000 1.0   0.01
S      3  0.3721190000000  0.1875910000000 -0.1228950000000 1.0   0.19
S      3  0.2492240000000  0.1875910000000  0.1228950000000 1.0   0.19
S      3 -0.3900640000000 -0.3278340000000  0.2305790000000 1.0  -0.06
S      3 -0.1594850000000 -0.3278340000000 -0.2305790000000 1.0  -0.06
Fe     4 -0.1837570000000  0.3080120000000  0.2833240000000 1.0  -3.64
Fe     4  0.0995670000000  0.3080120000000 -0.2833240000000 1.0  -3.64
Fe     4  0.4402310000000 -0.1324080000000 -0.2369030000000 1.0  -3.65
Fe     4  0.2033280000000 -0.1324080000000  0.2369030000000 1.0  -3.65
Fe     4 -0.1458420000000 -0.3923650000000 -0.5050580000000 1.0  -3.82
Fe     4  0.3491000000000 -0.3923650000000  0.5050580000000 1.0  -3.82
END
