TITL LFSO-Li2FeSO-201023-055357-71d353 -0.0064 233.732380 -4.00655255E+003 7.99909 8.28271 10 (Aea2) n - 1
REM
REM Run started: Fri, 23 Oct 2020 07:16:30 +0100 in /lustre/scratch/uccabz1/launch_tmp/launcher_2020-10-23-04-53-55-832443
REM CASTEP 20.1 from code version af48c487+ pr-geom-scf-spinfix Tue Jun 2 15:39:59 2020 +0100
REM Functional Perdew Burke Ernzerhof Relativity Koelling-Harmon Dispersion off
REM Cut-off 340.0000 eV Grid scale 1.7500 Gmax 16.5316 1/A FBSC none
REM MP grid 3 3 3 Offset 0.000 0.000 0.000 No. kpts 8 Spacing 0.07
REM Total runtime: 6129.37 s
REM Overall efficiency: 95.2857 %
REM
REM
REM
REM compiler GCC version 4.9.2
REM options -cpp -iprefix /lustre/shared/ucl/apps/gcc/4.9.2/bin/../lib/gcc/x86_64-unknown-linux-gnu/4.9.2/ -mtune=corei7 -march=x86-64 -g -Og
REM COMMAND_LINE
REM seed -1166693999 716734374 -790317458 -714417696 1875932914 -1422121026 -1290224511 643191924 -100666056 99525790 1706543773 2035738018
REM
REM S 3|1.8|5|6|7|30:31:32(qc=5)
REM O 2|1.5|12|13|15|20:21(qc=5)
REM Li 1|1.3|8|9|10|10U:20(qc=5)
REM Fe 3|2.2|2.0|1.0|8|9|10|40:41:32(qc=5)
REM Fe d:4.0 
REM
CELL 1.54180    6.86971    6.86971    6.38146   90.00000   90.00000  129.09446
LATT -1
SFAC Li O  S  Fe 
Li     1  0.2594230000000  0.4040760000000  0.1798100000000 1.0  -0.01
Li     1 -0.4040760000000 -0.2594230000000 -0.1798100000000 1.0  -0.01
Li     1  0.0959240000000  0.2405770000000 -0.3201900000000 1.0  -0.01
Li     1 -0.2405770000000 -0.0959240000000  0.3201900000000 1.0  -0.01
O      2 -0.6611630000000  0.6611630000000  0.0000000000000 1.0   0.13
O      2 -0.1611630000000  0.1611630000000  0.5000000000000 1.0   0.13
S      3  0.0113380000000 -0.0113380000000  0.0000000000000 1.0   0.00
S      3  0.5113380000000 -0.5113380000000  0.5000000000000 1.0   0.00
Fe     4  0.1939440000000 -0.1939440000000  0.0000000000000 1.0   3.89
Fe     4 -0.3060560000000  0.3060560000000  0.5000000000000 1.0   3.89
END
