TITL LFSO-Li2Fe4S4O-201023-032540-5abf3a 0.0497 483.781412 -1.10025573E+004 31.9885 32.2468 22 (Pba2) n - 1
REM
REM Run started: Fri, 23 Oct 2020 09:00:54 +0100 in /lustre/scratch/uccabz1/launch_tmp/launcher_2020-10-23-07-58-33-732929
REM CASTEP 20.1 from code version af48c487+ pr-geom-scf-spinfix Tue Jun 2 15:39:59 2020 +0100
REM Functional Perdew Burke Ernzerhof Relativity Koelling-Harmon Dispersion off
REM Cut-off 340.0000 eV Grid scale 1.7500 Gmax 16.5316 1/A FBSC none
REM MP grid 2 3 3 Offset 0.000 0.000 0.000 No. kpts 4 Spacing 0.07
REM Total runtime: 19306 s
REM Overall efficiency: 76.6923 %
REM
REM
REM
REM compiler GCC version 4.9.2
REM options -cpp -iprefix /lustre/shared/ucl/apps/gcc/4.9.2/bin/../lib/gcc/x86_64-unknown-linux-gnu/4.9.2/ -mtune=corei7 -march=x86-64 -g -Og
REM COMMAND_LINE
REM seed 1807233026 -378727103 -340098566 384118125 -1774467192 -423524322 1275327368 -9198415 1684910582 -1984483684 855661597 1872355257
REM
REM S 3|1.8|5|6|7|30:31:32(qc=5)
REM O 2|1.5|12|13|15|20:21(qc=5)
REM Li 1|1.3|8|9|10|10U:20(qc=5)
REM Fe 3|2.2|2.0|1.0|8|9|10|40:41:32(qc=5)
REM Fe d:4.0 
REM
CELL 1.54180    9.94896    6.84578    7.10310   90.00000   90.00000   90.00000
LATT -1
SFAC Li O  S  Fe 
Li     1 -0.0283320000000 -0.2867490000000  0.4093770000000 1.0  -0.07
Li     1  0.0283320000000  0.2867490000000  0.4093770000000 1.0  -0.07
Li     1 -0.4716680000000  0.2132510000000  0.4093770000000 1.0  -0.07
Li     1  0.4716680000000 -0.2132510000000  0.4093770000000 1.0  -0.07
O      2  0.5000000000000 -0.0000000000000  0.2545340000000 1.0   0.19
O      2  0.0000000000000 -0.5000000000000  0.2545340000000 1.0   0.19
S      3  0.2840220000000  0.3226830000000 -0.5388780000000 1.0   0.16
S      3 -0.2840220000000 -0.3226830000000 -0.5388780000000 1.0   0.16
S      3  0.2159780000000 -0.1773170000000 -0.5388780000000 1.0   0.16
S      3 -0.2159780000000  0.1773170000000 -0.5388780000000 1.0   0.16
S      3  0.2995280000000  0.3454410000000 -0.0542590000000 1.0   0.17
S      3 -0.2995280000000 -0.3454410000000 -0.0542590000000 1.0   0.17
S      3  0.2004720000000 -0.1545590000000 -0.0542590000000 1.0   0.17
S      3 -0.2004720000000  0.1545590000000 -0.0542590000000 1.0   0.17
Fe     4  0.1774740000000 -0.4390160000000  0.1621750000000 1.0   3.88
Fe     4 -0.1774740000000  0.4390160000000  0.1621750000000 1.0   3.88
Fe     4  0.3225260000000  0.0609840000000  0.1621750000000 1.0   3.88
Fe     4 -0.3225260000000 -0.0609840000000  0.1621750000000 1.0   3.88
Fe     4  0.2369140000000  0.0896980000000 -0.2908060000000 1.0   3.77
Fe     4 -0.2369140000000 -0.0896980000000 -0.2908060000000 1.0   3.77
Fe     4  0.2630860000000 -0.4103020000000 -0.2908060000000 1.0   3.77
Fe     4 -0.2630860000000  0.4103020000000 -0.2908060000000 1.0   3.77
END
