TITL LFSO-Li2Fe4S4O-201024-080700-6c5675 -0.0416 597.924985 -1.09928427E+004 -2.30868 28.4327 22 (P3) n - 1
REM
REM Run started: Sat, 24 Oct 2020 23:39:01 +0100 in /scratch/scratch/uccabz1/launch_tmp/launcher_2020-10-24-22-28-43-673414
REM CASTEP 19.11| from code version Version unavailable
REM Functional Perdew Burke Ernzerhof Relativity Koelling-Harmon Dispersion off
REM Cut-off 340.0000 eV Grid scale 1.7500 Gmax 16.5316 1/A FBSC none
REM MP grid 3 3 2 Offset 0.000 0.000 0.000 No. kpts 5 Spacing 0.07
REM Total runtime: 53433 s
REM Overall efficiency: 78.9091 %
REM
REM
REM
REM compiler GCC version 4.9.2
REM options -cpp -iprefix /lustre/shared/ucl/apps/gcc/4.9.2/bin/../lib/gcc/x86_64-unknown-linux-gnu/4.9.2/ -mtune=corei7 -march=x86-64 -g -Og
REM COMMAND_LINE
REM seed -1550032746 320819471 1527589209 -801123580 292947682 1738741464 -1346419138 17631168 -952726725 957881652 -425903782 -200865385
REM
REM S 3|1.8|5|6|7|30:31:32(qc=5)
REM O 2|1.5|12|13|15|20:21(qc=5)
REM Li 1|1.3|8|9|10|10U:20(qc=5)
REM Fe 3|2.2|2.0|1.0|8|9|10|40:41:32(qc=5)
REM Fe d:4.0 
REM
CELL 1.54180    7.53211    7.53211   12.16978   90.00000   90.00000  120.00000
LATT -1
SFAC Li O  S  Fe 
Li     1 -0.3667970000000 -0.1751490000000 -0.1164380000000 1.0   0.03
Li     1  0.1751490000000 -0.1916470000000 -0.1164380000000 1.0   0.03
Li     1  0.1916470000000  0.3667970000000 -0.1164380000000 1.0   0.03
Li     1 -0.3333340000000  0.3333340000000 -0.0961220000000 1.0  -0.17
O      2  0.3333330000000 -0.3333330000000 -0.4577800000000 1.0  -0.24
O      2  0.3333330000000 -0.3333330000000  0.1371920000000 1.0  -0.11
S      3  0.4896050000000 -0.0071200000000 -0.2602930000000 1.0   0.01
S      3  0.0071200000000  0.4967250000000 -0.2602930000000 1.0   0.01
S      3 -0.4967250000000 -0.4896050000000 -0.2602930000000 1.0   0.01
S      3 -0.3776650000000 -0.1814010000000  0.0860170000000 1.0  -0.07
S      3  0.1814010000000 -0.1962630000000  0.0860170000000 1.0  -0.07
S      3  0.1962630000000  0.3776650000000  0.0860170000000 1.0  -0.07
S      3 -0.3333340000000  0.3333340000000  0.0933800000000 1.0  -0.20
S      3 -0.0000000000000  0.0000000000000 -0.1037580000000 1.0   0.01
Fe     4 -0.1460460000000  0.1624390000000  0.0825010000000 1.0   3.07
Fe     4 -0.1624390000000 -0.3084840000000  0.0825010000000 1.0   3.07
Fe     4  0.3084840000000  0.1460460000000  0.0825010000000 1.0   3.07
Fe     4  0.1832040000000 -0.2056680000000 -0.3921540000000 1.0  -3.69
Fe     4  0.2056680000000  0.3888730000000 -0.3921540000000 1.0  -3.69
Fe     4 -0.3888730000000 -0.1832040000000 -0.3921540000000 1.0  -3.69
Fe     4 -0.0000000000000  0.0000000000000 -0.2977990000000 1.0  -3.44
Fe     4 -0.3333340000000  0.3333340000000 -0.3116380000000 1.0   3.82
END
