TITL LFSO-Li5FeS2O2-201025-155418-09142f -0.0380 325.976931 -6.68813345E+003 6.00261 6.93112 20 (F222) n - 1
REM
REM Run started: Sun, 25 Oct 2020 18:14:40 +0000 in /scratch/scratch/uccabz1/launch_tmp/launcher_2020-10-25-15-54-17-352676
REM CASTEP 19.11| from code version Version unavailable
REM Functional Perdew Burke Ernzerhof Relativity Koelling-Harmon Dispersion off
REM Cut-off 340.0000 eV Grid scale 1.7500 Gmax 16.5316 1/A FBSC none
REM MP grid 3 3 2 Offset 0.000 0.000 0.000 No. kpts 6 Spacing 0.07
REM Total runtime: 9228.07 s
REM Overall efficiency: 76.3846 %
REM
REM
REM
REM compiler GCC version 4.9.2
REM options -cpp -iprefix /scratch/UCL/applications/gcc/4.9.2/bin/../lib/gcc/x86_64-unknown-linux-gnu/4.9.2/ -mtune=corei7 -march=x86-64 -g -O2
REM COMMAND_LINE
REM seed -1716152829 -1805250736 -2081872997 -1594637625 1179955174 1445696773 810168755 -62899246 128284755 627846547 997421321 1455697180
REM
REM S 3|1.8|5|6|7|30:31:32(qc=5)
REM O 2|1.5|12|13|15|20:21(qc=5)
REM Li 1|1.3|8|9|10|10U:20(qc=5)
REM Fe 3|2.2|2.0|1.0|8|9|10|40:41:32(qc=5)
REM Fe d:4.0 
REM
CELL 1.54180    6.23501    6.23501    9.40468  106.39622  106.39622   98.53664
LATT -1
SFAC Li O  S  Fe 
Li     1 -0.1445260000000 -0.5597410000000  0.1706770000000 1.0  -0.01
Li     1  0.2695820000000 -0.3152030000000 -0.1706770000000 1.0  -0.01
Li     1  0.5597410000000  0.1445260000000 -0.1706770000000 1.0  -0.01
Li     1  0.3152030000000 -0.2695820000000  0.1706770000000 1.0  -0.01
Li     1 -0.0778390000000  0.0188880000000 -0.3531870000000 1.0  -0.08
Li     1  0.3720750000000  0.2753490000000  0.3531870000000 1.0  -0.08
Li     1 -0.0188880000000  0.0778390000000  0.3531870000000 1.0  -0.08
Li     1 -0.2753490000000 -0.3720750000000 -0.3531870000000 1.0  -0.08
Li     1 -0.0746560000000 -0.0746560000000 -0.1493120000000 1.0  -0.04
Li     1  0.0746560000000  0.0746560000000  0.1493120000000 1.0  -0.04
O      2  0.2378830000000 -0.0439870000000  0.3164300000000 1.0   0.04
O      2 -0.3604160000000 -0.0785470000000 -0.3164300000000 1.0   0.04
O      2  0.0439870000000 -0.2378830000000 -0.3164300000000 1.0   0.04
O      2  0.0785470000000  0.3604160000000  0.3164300000000 1.0   0.04
S      3 -0.1742030000000 -0.4468710000000 -0.0806720000000 1.0  -0.00
S      3 -0.3662000000000 -0.0935320000000  0.0806720000000 1.0  -0.00
S      3  0.4468710000000  0.1742030000000  0.0806720000000 1.0  -0.00
S      3  0.0935320000000  0.3662000000000 -0.0806720000000 1.0  -0.00
Fe     4  0.0636350000000  0.5636350000000 -0.5000000000000 1.0   3.16
Fe     4 -0.5636350000000 -0.0636350000000 -0.5000000000000 1.0   3.16
END
