TITL LFSO-Li4Fe3S4O-201029-123821-45e582 0.0268 214.520685 -5.03892744E+003 12.0000 12.1041 12 (R3) n - 1
REM
REM Run started: Thu, 29 Oct 2020 15:59:06 +0000 in /scratch/scratch/uccabz1/launch_tmp/launcher_2020-10-29-12-38-19-403394
REM CASTEP 19.11| from code version Version unavailable
REM Functional Perdew Burke Ernzerhof Relativity Koelling-Harmon Dispersion off
REM Cut-off 340.0000 eV Grid scale 1.7500 Gmax 16.5316 1/A FBSC none
REM MP grid 3 3 3 Offset 0.000 0.000 0.000 No. kpts 6 Spacing 0.07
REM Total runtime: 14674.7 s
REM Overall efficiency: 97 %
REM
REM
REM
REM compiler GCC version 4.9.2
REM options -cpp -iprefix /scratch/UCL/applications/gcc/4.9.2/bin/../lib/gcc/x86_64-unknown-linux-gnu/4.9.2/ -mtune=corei7 -march=x86-64 -g -O2
REM COMMAND_LINE
REM seed -1094133234 -2048666751 -295456294 867634131 813578255 -1529680837 -129433009 566233955 -660382993 1959252321 399870688 1368164132
REM
REM S 3|1.8|5|6|7|30:31:32(qc=5)
REM O 2|1.5|12|13|15|20:21(qc=5)
REM Li 1|1.3|8|9|10|10U:20(qc=5)
REM Fe 3|2.2|2.0|1.0|8|9|10|40:41:32(qc=5)
REM Fe d:4.0 
REM
CELL 1.54180    6.41571    6.41571    6.41571   66.93868   66.93868   66.93868
LATT -1
SFAC Li O  S  Fe 
Li     1 -0.4186950000000 -0.1960410000000  0.1345090000000 1.0  -0.06
Li     1 -0.1960410000000  0.1345090000000 -0.4186950000000 1.0  -0.06
Li     1  0.1345090000000 -0.4186950000000 -0.1960410000000 1.0  -0.06
Li     1 -0.0569370000000 -0.0569370000000 -0.0569370000000 1.0  -0.04
O      2 -0.1903990000000 -0.1903990000000 -0.1903990000000 1.0   0.08
S      3  0.0868010000000  0.2780020000000 -0.3082440000000 1.0   0.14
S      3  0.2780020000000 -0.3082440000000  0.0868010000000 1.0   0.14
S      3 -0.3082440000000  0.0868010000000  0.2780020000000 1.0   0.14
S      3 -0.4351530000000 -0.4351530000000 -0.4351530000000 1.0   0.17
Fe     4 -0.3260160000000  0.4360870000000 -0.0586830000000 1.0   3.84
Fe     4  0.4360870000000 -0.0586830000000 -0.3260160000000 1.0   3.84
Fe     4 -0.0586830000000 -0.3260160000000  0.4360870000000 1.0   3.84
END
