TITL LFSO-Li5FeSO3-201027-014916-c86f81 -0.0044 124.490558 -3.47640782E+003 5.00000 5.03911 10 (R3) n - 1
REM
REM Run started: Tue, 27 Oct 2020 02:02:02 +0000 in /lustre/scratch/uccabz1/launch_tmp/launcher_2020-10-27-01-49-15-181874
REM CASTEP 20.1 from code version af48c487+ pr-geom-scf-spinfix Tue Jun 2 15:39:59 2020 +0100
REM Functional Perdew Burke Ernzerhof Relativity Koelling-Harmon Dispersion off
REM Cut-off 340.0000 eV Grid scale 1.7500 Gmax 16.5316 1/A FBSC none
REM MP grid 3 3 3 Offset 0.000 0.000 0.000 No. kpts 6 Spacing 0.07
REM Total runtime: 865.19 s
REM Overall efficiency: 72.5 %
REM
REM
REM
REM compiler GCC version 4.9.2
REM options -cpp -iprefix /lustre/shared/ucl/apps/gcc/4.9.2/bin/../lib/gcc/x86_64-unknown-linux-gnu/4.9.2/ -mtune=corei7 -march=x86-64 -g -Og
REM COMMAND_LINE
REM seed 124289258 -396151748 797766798 -837778824 -1552470660 2085009858 -77814013 1176522547 -784991137 1768630261 1585615515 66342224
REM
REM S 3|1.8|5|6|7|30:31:32(qc=5)
REM O 2|1.5|12|13|15|20:21(qc=5)
REM Li 1|1.3|8|9|10|10U:20(qc=5)
REM Fe 3|2.2|2.0|1.0|8|9|10|40:41:32(qc=5)
REM Fe d:4.0 
REM
CELL 1.54180    4.99835    4.99835    4.99835   87.36099   87.36099   87.36099
LATT -1
SFAC Li O  S  Fe 
Li     1  0.0645390000000 -0.3483140000000  0.3861420000000 1.0  -0.01
Li     1 -0.3483140000000  0.3861420000000  0.0645390000000 1.0  -0.01
Li     1  0.3861420000000  0.0645390000000 -0.3483140000000 1.0  -0.01
Li     1 -0.2456370000000 -0.2456370000000 -0.2456370000000 1.0   0.00
Li     1 -0.4940200000000 -0.4940200000000 -0.4940200000000 1.0   0.07
O      2  0.1808610000000 -0.2318550000000 -0.2767700000000 1.0   0.26
O      2 -0.2318550000000 -0.2767700000000  0.1808610000000 1.0   0.26
O      2 -0.2767700000000  0.1808610000000 -0.2318550000000 1.0   0.26
S      3  0.2404170000000  0.2404170000000  0.2404170000000 1.0   0.22
Fe     4 -0.0081740000000 -0.0081740000000 -0.0081740000000 1.0   3.96
END
