TITL LFSO-Li4Fe3S3O2-201029-051842-c10e8e -0.2318 211.677839 -5.17151423E+003 10.0001 10.3929 12 (P-1) n - 1
REM
REM Run started: Thu, 29 Oct 2020 13:44:47 +0000 in /lustre/scratch/uccabz1/launch_tmp/launcher_2020-10-29-05-18-40-813580
REM CASTEP 20.1 from code version af48c487+ pr-geom-scf-spinfix Tue Jun 2 15:39:59 2020 +0100
REM Functional Perdew Burke Ernzerhof Relativity Koelling-Harmon Dispersion off
REM Cut-off 340.0000 eV Grid scale 1.7500 Gmax 16.5316 1/A FBSC none
REM MP grid 6 4 2 Offset 0.000 0.000 0.000 No. kpts 24 Spacing 0.07
REM Total runtime: 39091.9 s
REM Overall efficiency: 85.3846 %
REM
REM
REM
REM compiler GCC version 4.9.2
REM options -cpp -iprefix /lustre/shared/ucl/apps/gcc/4.9.2/bin/../lib/gcc/x86_64-unknown-linux-gnu/4.9.2/ -mtune=corei7 -march=x86-64 -g -Og
REM COMMAND_LINE
REM seed -1676150730 1844461222 1556767066 1582053169 1450724027 1738659461 1414882447 1144170078 1811843662 -1714023591 481219725 405171025
REM
REM S 3|1.8|5|6|7|30:31:32(qc=5)
REM O 2|1.5|12|13|15|20:21(qc=5)
REM Li 1|1.3|8|9|10|10U:20(qc=5)
REM Fe 3|2.2|2.0|1.0|8|9|10|40:41:32(qc=5)
REM Fe d:4.0 
REM
CELL 1.54180    7.38125    6.51141   15.50072   47.28837   30.54769   34.25682
LATT -1
SFAC Li O  S  Fe 
Li     1  0.2913330000000 -0.6686960000000 -0.2008540000000 1.0  -0.05
Li     1 -0.2913330000000  0.6686960000000  0.2008540000000 1.0  -0.05
Li     1  0.0947300000000  0.0079940000000 -0.1809030000000 1.0  -0.02
Li     1 -0.0947300000000 -0.0079940000000  0.1809030000000 1.0  -0.02
O      2 -0.3663950000000  0.3112800000000  0.2978910000000 1.0   0.07
O      2  0.3663950000000 -0.3112800000000 -0.2978910000000 1.0   0.07
S      3  0.3719870000000 -0.6416490000000  0.1184530000000 1.0  -0.02
S      3 -0.3719870000000  0.6416490000000 -0.1184530000000 1.0  -0.02
S      3  0.0000000000000  0.0000000000000 -0.5000000000000 1.0   0.06
Fe     4  0.2442640000000 -0.1750680000000 -0.4087270000000 1.0   3.31
Fe     4 -0.2442640000000  0.1750680000000  0.4087270000000 1.0   3.31
Fe     4  0.0000000000000 -0.5000000000000  0.5000000000000 1.0   3.36
END
