TITL LFSO-LiFe3S4O-201028-111231-361894 0.0358 185.950602 -4.43702413E+003 9.10094 13.2680 9 (P-6) n - 1
REM
REM Run started: Wed, 28 Oct 2020 12:21:34 +0000 in /scratch/scratch/uccabz1/launch_tmp/launcher_2020-10-28-11-12-30-008197
REM CASTEP 19.11| from code version Version unavailable
REM Functional Perdew Burke Ernzerhof Relativity Koelling-Harmon Dispersion off
REM Cut-off 340.0000 eV Grid scale 1.7500 Gmax 16.5316 1/A FBSC none
REM MP grid 4 3 3 Offset 0.000 0.000 0.000 No. kpts 10 Spacing 0.07
REM Total runtime: 4181.09 s
REM Overall efficiency: 75.7143 %
REM
REM
REM
REM compiler GCC version 4.9.2
REM options -cpp -iprefix /scratch/UCL/applications/gcc/4.9.2/bin/../lib/gcc/x86_64-unknown-linux-gnu/4.9.2/ -mtune=corei7 -march=x86-64 -g -O2
REM COMMAND_LINE
REM seed 631388607 1376807276 -972860563 -2053108582 -858982110 -1104297626 1852519498 -1793031841 -505424582 -802044789 906414920 -2107839633
REM
REM S 3|1.8|5|6|7|30:31:32(qc=5)
REM O 2|1.5|12|13|15|20:21(qc=5)
REM Li 1|1.3|8|9|10|10U:20(qc=5)
REM Fe 3|2.2|2.0|1.0|8|9|10|40:41:32(qc=5)
REM Fe d:4.0 
REM
CELL 1.54180    4.39673    6.98825    6.98825  120.00000   90.00000   90.00000
LATT -1
SFAC Li O  S  Fe 
Li     1  0.1881610000000 -0.0000000000000  0.0000000000000 1.0  -0.14
O      2 -0.3087220000000  0.3333330000000 -0.3333330000000 1.0   0.15
S      3  0.1892340000000  0.6356530000000  0.0951790000000 1.0  -0.71
S      3  0.1892340000000 -0.5404730000000 -0.6356530000000 1.0  -0.71
S      3  0.1892340000000 -0.0951790000000  0.5404730000000 1.0  -0.71
S      3 -0.3115380000000 -0.0000000000000  0.0000000000000 1.0  -0.06
Fe     4 -0.3120350000000 -0.3806700000000 -0.0652510000000 1.0   3.76
Fe     4 -0.3120350000000  0.3154190000000  0.3806700000000 1.0   3.76
Fe     4 -0.3120350000000  0.0652510000000 -0.3154190000000 1.0   3.76
END
