TITL LFSO-Li4Fe2S3O-201028-014836-17bfb6 -0.0007 346.791518 -7.74665542E+003 16.0000 16.0939 20 (Ama2) n - 1
REM
REM Run started: Wed, 28 Oct 2020 04:47:52 +0000 in /lustre/scratch/uccabz1/launch_tmp/launcher_2020-10-28-01-48-35-118426
REM CASTEP 20.1 from code version af48c487+ pr-geom-scf-spinfix Tue Jun 2 15:39:59 2020 +0100
REM Functional Perdew Burke Ernzerhof Relativity Koelling-Harmon Dispersion off
REM Cut-off 340.0000 eV Grid scale 1.7500 Gmax 16.5316 1/A FBSC none
REM MP grid 4 4 1 Offset 0.000 0.000 0.000 No. kpts 6 Spacing 0.07
REM Total runtime: 11887.3 s
REM Overall efficiency: 90 %
REM
REM
REM
REM compiler GCC version 4.9.2
REM options -cpp -iprefix /lustre/shared/ucl/apps/gcc/4.9.2/bin/../lib/gcc/x86_64-unknown-linux-gnu/4.9.2/ -mtune=corei7 -march=x86-64 -g -Og
REM COMMAND_LINE
REM seed -1243882356 -1607870979 1273747320 -820012935 -1415829410 1913889275 383817740 -619703472 -727450775 541816665 828243062 -1462630541
REM
REM S 3|1.8|5|6|7|30:31:32(qc=5)
REM O 2|1.5|12|13|15|20:21(qc=5)
REM Li 1|1.3|8|9|10|10U:20(qc=5)
REM Fe 3|2.2|2.0|1.0|8|9|10|40:41:32(qc=5)
REM Fe d:4.0 
REM
CELL 1.54180    4.61149    4.61149   16.36482   90.00000   90.00000   94.79877
LATT -1
SFAC Li O  S  Fe 
Li     1 -0.0117070000000  0.2941340000000 -0.3277210000000 1.0  -0.04
Li     1 -0.2941340000000  0.0117070000000  0.3277210000000 1.0  -0.04
Li     1 -0.2941340000000  0.0117070000000  0.1722790000000 1.0  -0.04
Li     1 -0.0117070000000  0.2941340000000 -0.1722790000000 1.0  -0.04
Li     1 -0.6429900000000  0.1926270000000  0.4833100000000 1.0  -0.03
Li     1 -0.1926270000000  0.6429900000000 -0.4833100000000 1.0  -0.03
Li     1 -0.1926270000000  0.6429900000000 -0.0166900000000 1.0  -0.03
Li     1 -0.6429900000000  0.1926270000000  0.0166900000000 1.0  -0.03
O      2  0.1828260000000 -0.1828260000000 -0.0000000000000 1.0   0.17
O      2  0.1828260000000 -0.1828260000000 -0.5000000000000 1.0   0.17
S      3 -0.3362270000000  0.4805470000000  0.1157430000000 1.0   0.09
S      3 -0.4805470000000  0.3362270000000 -0.1157430000000 1.0   0.09
S      3 -0.4805470000000  0.3362270000000 -0.3842570000000 1.0   0.09
S      3 -0.3362270000000  0.4805470000000  0.3842570000000 1.0   0.09
S      3  0.0485850000000 -0.1891230000000 -0.2500000000000 1.0   0.07
S      3  0.1891230000000 -0.0485850000000  0.2500000000000 1.0   0.07
Fe     4  0.1978290000000 -0.3205360000000  0.1190760000000 1.0   3.86
Fe     4  0.3205360000000 -0.1978290000000 -0.1190760000000 1.0   3.86
Fe     4  0.3205360000000 -0.1978290000000 -0.3809240000000 1.0   3.86
Fe     4  0.1978290000000 -0.3205360000000  0.3809240000000 1.0   3.86
END
