TITL LFSO-Li6FeS3O-201027-165249-d8eaa7 0.0203 266.034379 -3.40977394E+003 4.00002 4.12127 11 (P3) n - 1
REM
REM Run started: Tue, 27 Oct 2020 18:18:17 +0000 in /lustre/scratch/uccabz1/launch_tmp/launcher_2020-10-27-16-52-47-603512
REM CASTEP 20.1 from code version af48c487+ pr-geom-scf-spinfix Tue Jun 2 15:39:59 2020 +0100
REM Functional Perdew Burke Ernzerhof Relativity Koelling-Harmon Dispersion off
REM Cut-off 340.0000 eV Grid scale 1.7500 Gmax 16.5316 1/A FBSC none
REM MP grid 3 3 3 Offset 0.000 0.000 0.000 No. kpts 8 Spacing 0.07
REM Total runtime: 5174.08 s
REM Overall efficiency: 90.6667 %
REM
REM
REM
REM compiler GCC version 4.9.2
REM options -cpp -iprefix /lustre/shared/ucl/apps/gcc/4.9.2/bin/../lib/gcc/x86_64-unknown-linux-gnu/4.9.2/ -mtune=corei7 -march=x86-64 -g -Og
REM COMMAND_LINE
REM seed -355199656 -1049220597 -631237665 -1672432652 360545027 -1510573538 -1580861489 1859585646 2141108330 2108933093 736074496 -585785620
REM
REM S 3|1.8|5|6|7|30:31:32(qc=5)
REM O 2|1.5|12|13|15|20:21(qc=5)
REM Li 1|1.3|8|9|10|10U:20(qc=5)
REM Fe 3|2.2|2.0|1.0|8|9|10|40:41:32(qc=5)
REM Fe d:4.0 
REM
CELL 1.54180    6.12573    7.08149    7.08149  120.00000   90.00000   90.00000
LATT -1
SFAC Li O  S  Fe 
Li     1  0.3197600000000  0.1893940000000  0.2045080000000 1.0  -0.01
Li     1  0.3197600000000  0.0151150000000 -0.1893940000000 1.0  -0.01
Li     1  0.3197600000000 -0.2045080000000 -0.0151150000000 1.0  -0.01
Li     1 -0.3160890000000  0.3834480000000  0.3804650000000 1.0  -0.01
Li     1 -0.3160890000000 -0.0029830000000 -0.3834480000000 1.0  -0.01
Li     1 -0.3160890000000 -0.3804650000000  0.0029830000000 1.0  -0.01
O      2  0.1344100000000  0.0000000000000 -0.0000000000000 1.0   0.07
S      3  0.6008180000000 -0.0009330000000  0.2957330000000 1.0   0.04
S      3  0.6008180000000  0.2966660000000  0.0009330000000 1.0   0.04
S      3  0.6008180000000 -0.2957330000000 -0.2966660000000 1.0   0.04
Fe     4 -0.1834490000000  0.0000000000000 -0.0000000000000 1.0   3.85
END
