TITL LFSO-Li2Fe2S2O-201022-035221-31e3fb 0.0036 234.835965 -6.33544256E+003 15.7443 15.9651 14 (R3) n - 1
REM
REM Run started: Thu, 22 Oct 2020 07:00:25 +0100 in /lustre/scratch/uccabz1/launch_tmp/launcher_2020-10-22-02-52-19-262963
REM CASTEP 20.1 from code version af48c487+ pr-geom-scf-spinfix Tue Jun 2 15:39:59 2020 +0100
REM Functional Perdew Burke Ernzerhof Relativity Koelling-Harmon Dispersion off
REM Cut-off 340.0000 eV Grid scale 1.7500 Gmax 16.5316 1/A FBSC none
REM MP grid 3 3 3 Offset 0.000 0.000 0.000 No. kpts 6 Spacing 0.07
REM Total runtime: 11890.7 s
REM Overall efficiency: 96.5714 %
REM
REM
REM
REM compiler GCC version 4.9.2
REM options -cpp -iprefix /lustre/shared/ucl/apps/gcc/4.9.2/bin/../lib/gcc/x86_64-unknown-linux-gnu/4.9.2/ -mtune=corei7 -march=x86-64 -g -Og
REM COMMAND_LINE
REM seed -1859146469 188642071 1188738221 -1195043691 1958286226 -1707034776 -665757731 1852877684 1027640838 -3641002 409544455 -1535039984
REM
REM S 3|1.8|5|6|7|30:31:32(qc=5)
REM O 2|1.5|12|13|15|20:21(qc=5)
REM Li 1|1.3|8|9|10|10U:20(qc=5)
REM Fe 3|2.2|2.0|1.0|8|9|10|40:41:32(qc=5)
REM Fe d:4.0 
REM
CELL 1.54180    7.48431    7.48431    7.48431   51.18026   51.18026   51.18026
LATT -1
SFAC Li O  S  Fe 
Li     1 -0.1693720000000 -0.3928800000000  0.3598640000000 1.0  -0.04
Li     1 -0.3928800000000  0.3598640000000 -0.1693720000000 1.0  -0.04
Li     1  0.3598640000000 -0.1693720000000 -0.3928800000000 1.0  -0.04
Li     1 -0.1197450000000 -0.1197450000000 -0.1197450000000 1.0  -0.05
O      2 -0.4573060000000 -0.4573060000000 -0.4573060000000 1.0   0.02
O      2 -0.2255100000000 -0.2255100000000 -0.2255100000000 1.0   0.14
S      3  0.0368310000000  0.2499610000000 -0.3515550000000 1.0   0.09
S      3  0.2499610000000 -0.3515550000000  0.0368310000000 1.0   0.09
S      3 -0.3515550000000  0.0368310000000  0.2499610000000 1.0   0.09
S      3  0.4575050000000  0.4575050000000  0.4575050000000 1.0   0.07
Fe     4 -0.2366480000000  0.4239770000000  0.0351820000000 1.0   3.81
Fe     4  0.4239770000000  0.0351820000000 -0.2366480000000 1.0   3.81
Fe     4  0.0351820000000 -0.2366480000000  0.4239770000000 1.0   3.81
Fe     4  0.2307190000000  0.2307190000000  0.2307190000000 1.0   4.00
END
