TITL LFSO-Li2Fe4S3O2-201025-225707-0dff22 0.2938 432.721816 -1.12683776E+004 30.0000 30.4530 22 (P21) n - 1
REM
REM Run started: Tue, 27 Oct 2020 02:26:32 +0000 in /lustre/scratch/uccabz1/launch_tmp/launcher_2020-10-27-01-15-43-166682
REM CASTEP 20.1 from code version af48c487+ pr-geom-scf-spinfix Tue Jun 2 15:39:59 2020 +0100
REM Functional Perdew Burke Ernzerhof Relativity Koelling-Harmon Dispersion off
REM Cut-off 340.0000 eV Grid scale 1.7500 Gmax 16.5316 1/A FBSC none
REM MP grid 3 2 2 Offset 0.000 0.000 0.000 No. kpts 4 Spacing 0.07
REM Total runtime: 100598 s
REM Overall efficiency: 76.3333 %
REM
REM
REM
REM compiler GCC version 4.9.2
REM options -cpp -iprefix /lustre/shared/ucl/apps/gcc/4.9.2/bin/../lib/gcc/x86_64-unknown-linux-gnu/4.9.2/ -mtune=corei7 -march=x86-64 -g -Og
REM COMMAND_LINE
REM seed -196368405 1070214294 1399328232 -912348015 -377072444 1781528916 -566973734 1722409511 949559057 1758854158 757226032 -1709847202
REM
REM S 3|1.8|5|6|7|30:31:32(qc=5)
REM O 2|1.5|12|13|15|20:21(qc=5)
REM Li 1|1.3|8|9|10|10U:20(qc=5)
REM Fe 3|2.2|2.0|1.0|8|9|10|40:41:32(qc=5)
REM Fe d:4.0 
REM
CELL 1.54180    4.98931    9.86344    9.79158  116.10077   90.00000   90.00000
LATT -1
SFAC Li O  S  Fe 
Li     1  0.2584800000000 -0.1870120000000 -0.2786320000000 1.0  -0.05
Li     1 -0.2415200000000  0.1870120000000  0.2786320000000 1.0  -0.05
Li     1  0.4926820000000  0.1010330000000 -0.2326290000000 1.0  -0.04
Li     1 -0.0073180000000 -0.1010330000000  0.2326290000000 1.0  -0.04
O      2  0.2183250000000 -0.5141740000000 -0.2919460000000 1.0   0.26
O      2 -0.2816750000000  0.5141740000000  0.2919460000000 1.0   0.26
O      2 -0.1184850000000  0.0016340000000  0.1202680000000 1.0   0.16
O      2 -0.6184850000000 -0.0016340000000 -0.1202680000000 1.0   0.16
S      3  0.2543840000000  0.0198420000000  0.5200400000000 1.0   0.03
S      3 -0.2456160000000 -0.0198420000000 -0.5200400000000 1.0   0.03
S      3  0.2799400000000 -0.3408010000000  0.1344600000000 1.0   0.16
S      3 -0.2200600000000  0.3408010000000 -0.1344600000000 1.0   0.16
S      3 -0.2231750000000 -0.2857140000000 -0.3202480000000 1.0   0.07
S      3 -0.7231750000000  0.2857140000000  0.3202480000000 1.0   0.07
Fe     4  0.3358130000000  0.4902080000000  0.2582110000000 1.0   3.69
Fe     4 -0.1641870000000 -0.4902080000000 -0.2582110000000 1.0   3.69
Fe     4 -0.2302870000000 -0.2775860000000  0.4250680000000 1.0   3.52
Fe     4  0.2697130000000  0.2775860000000 -0.4250680000000 1.0   3.52
Fe     4 -0.2920100000000 -0.0929490000000 -0.0691480000000 1.0   3.76
Fe     4  0.2079900000000  0.0929490000000  0.0691480000000 1.0   3.76
Fe     4  0.3825900000000  0.4686580000000 -0.1182670000000 1.0   3.45
Fe     4 -0.1174100000000 -0.4686580000000  0.1182670000000 1.0   3.45
END
