TITL LFSO-Li5FeS2O2-201025-172834-52096e 0.5034 707.855303 -6.68626066E+003 6.00050 6.73832 20 (Cm) n - 1
REM
REM Run started: Tue, 27 Oct 2020 14:09:07 +0000 in /scratch/scratch/uccabz1/launch_tmp/launcher_2020-10-27-12-24-53-181222
REM CASTEP 19.11| from code version Version unavailable
REM Functional Perdew Burke Ernzerhof Relativity Koelling-Harmon Dispersion off
REM Cut-off 340.0000 eV Grid scale 1.7500 Gmax 16.5316 1/A FBSC none
REM MP grid 5 2 2 Offset 0.000 0.000 0.000 No. kpts 8 Spacing 0.07
REM Total runtime: 109334 s
REM Overall efficiency: 88.5833 %
REM
REM
REM
REM compiler GCC version 4.9.2
REM options -cpp -iprefix /lustre/shared/ucl/apps/gcc/4.9.2/bin/../lib/gcc/x86_64-unknown-linux-gnu/4.9.2/ -mtune=corei7 -march=x86-64 -g -Og
REM COMMAND_LINE
REM seed 1487083965 1153476401 2002486954 849415980 1610181325 -579185457 1759820910 1827959484 1828442648 1881332261 -764582868 422349477
REM
REM S 3|1.8|5|6|7|30:31:32(qc=5)
REM O 2|1.5|12|13|15|20:21(qc=5)
REM Li 1|1.3|8|9|10|10U:20(qc=5)
REM Fe 3|2.2|2.0|1.0|8|9|10|40:41:32(qc=5)
REM Fe d:4.0 
REM
CELL 1.54180    3.68157   20.60174   20.60174  152.18095   93.31170   93.31170
LATT -1
SFAC Li O  S  Fe 
Li     1 -0.6192980000000  0.0369210000000 -0.2868140000000 1.0  -0.05
Li     1 -0.6192980000000 -0.2868140000000  0.0369210000000 1.0  -0.05
Li     1 -0.2141870000000 -0.2304380000000 -0.5223150000000 1.0  -0.01
Li     1 -0.2141870000000 -0.5223150000000 -0.2304380000000 1.0  -0.01
Li     1 -0.4300740000000  0.5367040000000  0.0603310000000 1.0  -0.04
Li     1 -0.4300740000000  0.0603310000000  0.5367040000000 1.0  -0.04
Li     1  0.2188210000000 -0.4329560000000  0.3434910000000 1.0  -0.00
Li     1  0.2188210000000  0.3434910000000 -0.4329560000000 1.0  -0.00
Li     1 -0.3735660000000  0.1844920000000  0.5038450000000 1.0  -0.01
Li     1 -0.3735660000000  0.5038450000000  0.1844920000000 1.0  -0.01
O      2  0.8220700000000 -0.3575220000000 -0.0363200000000 1.0   0.02
O      2  0.8220700000000 -0.0363200000000 -0.3575220000000 1.0   0.02
O      2 -0.2777160000000 -0.4094840000000  0.3434840000000 1.0   0.00
O      2 -0.2777160000000  0.3434840000000 -0.4094840000000 1.0   0.00
S      3 -0.0684740000000  0.0430260000000 -0.3645550000000 1.0  -0.03
S      3 -0.0684740000000 -0.3645550000000  0.0430260000000 1.0  -0.03
S      3  0.0785960000000  0.5046930000000  0.1050900000000 1.0  -0.01
S      3  0.0785960000000  0.1050900000000  0.5046930000000 1.0  -0.01
Fe     4 -0.0452890000000  0.2794540000000 -0.1301060000000 1.0   3.13
Fe     4 -0.0452890000000 -0.1301060000000  0.2794540000000 1.0   3.13
END
