TITL LFSO-Li2Fe3S2O2-201022-133153-20dfb4 0.0367 331.269580 -8.93753903E+003 22.0000 22.5728 18 (C2) n - 1
REM
REM Run started: Thu, 22 Oct 2020 22:36:58 +0100 in /lustre/scratch/uccabz1/launch_tmp/launcher_2020-10-22-12-31-51-535217
REM CASTEP 20.1 from code version af48c487+ pr-geom-scf-spinfix Tue Jun 2 15:39:59 2020 +0100
REM Functional Perdew Burke Ernzerhof Relativity Koelling-Harmon Dispersion off
REM Cut-off 340.0000 eV Grid scale 1.7500 Gmax 16.5316 1/A FBSC none
REM MP grid 3 2 2 Offset 0.000 0.000 0.000 No. kpts 5 Spacing 0.07
REM Total runtime: 34183.3 s
REM Overall efficiency: 71.0769 %
REM
REM
REM
REM compiler GCC version 4.9.2
REM options -cpp -iprefix /lustre/shared/ucl/apps/gcc/4.9.2/bin/../lib/gcc/x86_64-unknown-linux-gnu/4.9.2/ -mtune=corei7 -march=x86-64 -g -Og
REM COMMAND_LINE
REM seed -476683821 -461645707 467012334 1746445069 -1907168623 -1901396189 -1007080493 657757040 856706599 973276619 1254936965 -1910450976
REM
REM S 3|1.8|5|6|7|30:31:32(qc=5)
REM O 2|1.5|12|13|15|20:21(qc=5)
REM Li 1|1.3|8|9|10|10U:20(qc=5)
REM Fe 3|2.2|2.0|1.0|8|9|10|40:41:32(qc=5)
REM Fe d:4.0 
REM
CELL 1.54180    5.87880    7.57772    7.57772   97.45209   95.42148   95.42148
LATT -1
SFAC Li O  S  Fe 
Li     1  0.1711290000000 -0.3364090000000  0.1120150000000 1.0  -0.06
Li     1 -0.1711290000000 -0.1120150000000  0.3364090000000 1.0  -0.06
Li     1 -0.1128120000000 -0.0645650000000 -0.2105930000000 1.0   0.02
Li     1  0.1128120000000  0.2105930000000  0.0645650000000 1.0   0.02
O      2  0.2496210000000  0.4372030000000  0.1760450000000 1.0   0.15
O      2 -0.2496210000000 -0.1760450000000 -0.4372030000000 1.0   0.15
O      2 -0.1854350000000  0.3655520000000  0.4361860000000 1.0   0.18
O      2  0.1854350000000 -0.4361860000000 -0.3655520000000 1.0   0.18
S      3  0.3554120000000 -0.0055750000000 -0.1495090000000 1.0   0.04
S      3 -0.3554120000000  0.1495090000000  0.0055750000000 1.0   0.04
S      3  0.2109190000000  0.0234390000000  0.3218330000000 1.0   0.05
S      3 -0.2109190000000 -0.3218330000000 -0.0234390000000 1.0   0.05
Fe     4 -0.4406110000000  0.2014600000000  0.3503610000000 1.0   3.31
Fe     4  0.4406110000000 -0.3503610000000 -0.2014600000000 1.0   3.31
Fe     4  0.4632830000000 -0.0727140000000 -0.4601220000000 1.0   3.52
Fe     4 -0.4632830000000  0.4601220000000  0.0727140000000 1.0   3.52
Fe     4 -0.1714860000000 -0.4178880000000 -0.3867410000000 1.0   3.80
Fe     4  0.1714860000000  0.3867410000000  0.4178880000000 1.0   3.80
END
