TITL LFSO-Li2Fe3S2O2-201022-095200-47a529 0.0228 343.067182 -8.93925239E+003 -24.0000 24.1576 18 (P3) n - 1
REM
REM Run started: Thu, 22 Oct 2020 21:24:55 +0100 in /lustre/scratch/uccabz1/launch_tmp/launcher_2020-10-22-08-51-58-944861
REM CASTEP 20.1 from code version af48c487+ pr-geom-scf-spinfix Tue Jun 2 15:39:59 2020 +0100
REM Functional Perdew Burke Ernzerhof Relativity Koelling-Harmon Dispersion off
REM Cut-off 340.0000 eV Grid scale 1.7500 Gmax 16.5316 1/A FBSC none
REM MP grid 3 3 3 Offset 0.000 0.000 0.000 No. kpts 8 Spacing 0.07
REM Total runtime: 43409.6 s
REM Overall efficiency: 97.4545 %
REM
REM
REM
REM compiler GCC version 4.9.2
REM options -cpp -iprefix /lustre/shared/ucl/apps/gcc/4.9.2/bin/../lib/gcc/x86_64-unknown-linux-gnu/4.9.2/ -mtune=corei7 -march=x86-64 -g -Og
REM COMMAND_LINE
REM seed 1393733646 -1217762046 777956039 -593693263 1871137939 -74471347 434142486 -1280027901 2038182991 1260122645 -1713476149 -1326426372
REM
REM S 3|1.8|5|6|7|30:31:32(qc=5)
REM O 2|1.5|12|13|15|20:21(qc=5)
REM Li 1|1.3|8|9|10|10U:20(qc=5)
REM Fe 3|2.2|2.0|1.0|8|9|10|40:41:32(qc=5)
REM Fe d:4.0 
REM
CELL 1.54180    5.82660    8.24549    8.24549  120.00000   90.00000   90.00000
LATT -1
SFAC Li O  S  Fe 
Li     1 -0.2636540000000  0.2370890000000  0.0826300000000 1.0   0.02
Li     1 -0.2636540000000 -0.1544600000000 -0.2370890000000 1.0   0.02
Li     1 -0.2636540000000 -0.0826300000000  0.1544600000000 1.0   0.02
Li     1 -0.0655900000000 -0.3333330000000  0.3333330000000 1.0   0.04
O      2 -0.0249870000000 -0.2999250000000 -0.4233190000000 1.0  -0.19
O      2 -0.0249870000000 -0.1233940000000  0.2999250000000 1.0  -0.19
O      2 -0.0249870000000  0.4233190000000  0.1233940000000 1.0  -0.19
O      2 -0.0769840000000 -0.0000000000000  0.0000000000000 1.0  -0.17
S      3  0.4067510000000  0.2607960000000  0.2978780000000 1.0  -0.11
S      3  0.4067510000000  0.0370820000000 -0.2607960000000 1.0  -0.11
S      3  0.4067510000000 -0.2978780000000 -0.0370820000000 1.0  -0.11
S      3 -0.0987520000000  0.3333330000000 -0.3333330000000 1.0  -0.20
Fe     4  0.1862170000000  0.2062260000000  0.0204810000000 1.0  -3.76
Fe     4  0.1862170000000 -0.1857450000000 -0.2062260000000 1.0  -3.76
Fe     4  0.1862170000000 -0.0204810000000  0.1857450000000 1.0  -3.76
Fe     4  0.0885120000000  0.0422600000000  0.5520300000000 1.0  -3.84
Fe     4  0.0885120000000  0.5097700000000 -0.0422600000000 1.0  -3.84
Fe     4  0.0885120000000 -0.5520300000000 -0.5097700000000 1.0  -3.84
END
