TITL LFSO-Li2Fe4S4O-201022-173100-e40765 0.1751 531.656598 -1.10021980E+004 16.0000 30.6823 22 (Cc) n - 1
REM
REM Run started: Fri, 23 Oct 2020 02:32:32 +0100 in /lustre/scratch/uccabz1/launch_tmp/launcher_2020-10-22-16-30-58-650974
REM CASTEP 20.1 from code version af48c487+ pr-geom-scf-spinfix Tue Jun 2 15:39:59 2020 +0100
REM Functional Perdew Burke Ernzerhof Relativity Koelling-Harmon Dispersion off
REM Cut-off 340.0000 eV Grid scale 1.7500 Gmax 16.5316 1/A FBSC none
REM MP grid 3 3 1 Offset 0.000 0.000 0.000 No. kpts 4 Spacing 0.07
REM Total runtime: 35277.7 s
REM Overall efficiency: 73.6154 %
REM
REM
REM
REM compiler GCC version 4.9.2
REM options -cpp -iprefix /lustre/shared/ucl/apps/gcc/4.9.2/bin/../lib/gcc/x86_64-unknown-linux-gnu/4.9.2/ -mtune=corei7 -march=x86-64 -g -Og
REM COMMAND_LINE
REM seed 244616931 1156824977 -179081371 1645793991 -350914708 578694157 -53345712 359929847 1551857 1327118052 -353185656 -1833597246
REM
REM S 3|1.8|5|6|7|30:31:32(qc=5)
REM O 2|1.5|12|13|15|20:21(qc=5)
REM Li 1|1.3|8|9|10|10U:20(qc=5)
REM Fe 3|2.2|2.0|1.0|8|9|10|40:41:32(qc=5)
REM Fe d:4.0 
REM
CELL 1.54180    6.09786    6.08704   16.60354   92.32211   94.63980   59.94120
LATT -1
SFAC Li O  S  Fe 
Li     1 -0.2875880000000  0.4918240000000 -0.2762600000000 1.0  -0.03
Li     1 -0.2957640000000 -0.4918240000000  0.2237400000000 1.0  -0.03
Li     1 -0.3174380000000  0.2081120000000 -0.0068880000000 1.0   0.00
Li     1 -0.6093260000000 -0.2081120000000  0.4931120000000 1.0   0.00
O      2 -0.3744260000000 -0.1514340000000  0.2203840000000 1.0   0.03
O      2 -0.0258600000000  0.1514340000000 -0.2796160000000 1.0   0.03
S      3  0.2823270000000  0.4683680000000 -0.5135730000000 1.0   0.12
S      3  0.2506940000000 -0.4683680000000 -0.0135730000000 1.0   0.12
S      3  0.0048270000000  0.1549370000000  0.3326740000000 1.0   0.14
S      3  0.6597640000000 -0.1549370000000 -0.1673260000000 1.0   0.14
S      3 -0.7313160000000  0.5175960000000  0.2267860000000 1.0   0.09
S      3  0.2862810000000 -0.5175960000000 -0.2732140000000 1.0   0.09
S      3 -0.3839010000000 -0.1753950000000 -0.3847520000000 1.0   0.11
S      3 -0.0592950000000  0.1753950000000  0.1152480000000 1.0   0.11
Fe     4  0.0483950000000 -0.4220440000000 -0.4041660000000 1.0   3.77
Fe     4  0.1263520000000  0.4220440000000  0.0958340000000 1.0   3.77
Fe     4  0.0947300000000 -0.4309990000000 -0.1467850000000 1.0   3.78
Fe     4  0.1637310000000  0.4309990000000  0.3532150000000 1.0   3.78
Fe     4  0.3146450000000  0.0684140000000 -0.2762680000000 1.0  -3.69
Fe     4 -0.1169410000000 -0.0684140000000  0.2237320000000 1.0  -3.69
Fe     4  0.2822260000000  0.0691270000000  0.2249190000000 1.0   3.68
Fe     4 -0.1486470000000 -0.0691270000000 -0.2750810000000 1.0   3.68
END
