TITL LFSO-Li2FeSO-201025-082841-3df936 0.0605 242.653782 -6.00958786E+003 12.0000 12.1114 15 (R3) n - 1
REM
REM Run started: Sun, 25 Oct 2020 09:14:21 +0000 in /lustre/scratch/uccabz1/launch_tmp/launcher_2020-10-25-08-28-40-161661
REM CASTEP 20.1 from code version af48c487+ pr-geom-scf-spinfix Tue Jun 2 15:39:59 2020 +0100
REM Functional Perdew Burke Ernzerhof Relativity Koelling-Harmon Dispersion off
REM Cut-off 340.0000 eV Grid scale 1.7500 Gmax 16.5316 1/A FBSC none
REM MP grid 3 3 3 Offset 0.000 0.000 0.000 No. kpts 6 Spacing 0.07
REM Total runtime: 2777.64 s
REM Overall efficiency: 75.25 %
REM
REM
REM
REM compiler GCC version 4.9.2
REM options -cpp -iprefix /lustre/shared/ucl/apps/gcc/4.9.2/bin/../lib/gcc/x86_64-unknown-linux-gnu/4.9.2/ -mtune=corei7 -march=x86-64 -g -Og
REM COMMAND_LINE
REM seed 621890680 897664265 1318689043 724067537 239821646 1225536417 -2032231872 1950478230 502785850 540544303 1681161074 335759526
REM
REM S 3|1.8|5|6|7|30:31:32(qc=5)
REM O 2|1.5|12|13|15|20:21(qc=5)
REM Li 1|1.3|8|9|10|10U:20(qc=5)
REM Fe 3|2.2|2.0|1.0|8|9|10|40:41:32(qc=5)
REM Fe d:4.0 
REM
CELL 1.54180    6.22887    7.02096    7.02096  111.64274  107.20116  107.20116
LATT -1
SFAC Li O  S  Fe 
Li     1 -0.4082010000000  0.1494300000000 -0.5257530000000 1.0  -0.01
Li     1  0.1175520000000  0.5257530000000 -0.3248170000000 1.0  -0.01
Li     1  0.4423690000000  0.3248170000000 -0.1494300000000 1.0  -0.01
Li     1  0.3427270000000  0.3563250000000  0.2027590000000 1.0  -0.01
Li     1  0.1399680000000 -0.2027590000000  0.1535660000000 1.0  -0.01
Li     1 -0.0135980000000 -0.1535660000000 -0.3563250000000 1.0  -0.01
O      2 -0.3947870000000  0.3803600000000  0.1441110000000 1.0   0.19
O      2 -0.5388990000000 -0.1441110000000  0.2362480000000 1.0   0.19
O      2  0.2248530000000 -0.2362480000000 -0.3803600000000 1.0   0.19
S      3 -0.0647960000000  0.2043420000000 -0.1749710000000 1.0   0.11
S      3  0.1101750000000  0.1749710000000  0.3793130000000 1.0   0.11
S      3 -0.2691380000000 -0.3793130000000 -0.2043420000000 1.0   0.11
Fe     4 -0.1512320000000  0.2854970000000  0.1508940000000 1.0   3.71
Fe     4  0.6978740000000 -0.1508940000000  0.1346030000000 1.0   3.71
Fe     4 -0.4367290000000 -0.1346030000000 -0.2854970000000 1.0   3.71
END
