TITL LFSO-Li5FeSO3-201026-024834-d0acfe 0.0106 317.524395 -6.95765696E+003 6.00003 7.08645 20 (C2) n - 1
REM
REM Run started: Mon, 26 Oct 2020 05:37:46 +0000 in /scratch/scratch/uccabz1/launch_tmp/launcher_2020-10-26-02-48-32-529790
REM CASTEP 19.11| from code version Version unavailable
REM Functional Perdew Burke Ernzerhof Relativity Koelling-Harmon Dispersion off
REM Cut-off 340.0000 eV Grid scale 1.7500 Gmax 16.5316 1/A FBSC none
REM MP grid 3 3 2 Offset 0.000 0.000 0.000 No. kpts 6 Spacing 0.07
REM Total runtime: 10420.8 s
REM Overall efficiency: 74.8462 %
REM
REM
REM
REM compiler GCC version 4.9.2
REM options -cpp -iprefix /scratch/UCL/applications/gcc/4.9.2/bin/../lib/gcc/x86_64-unknown-linux-gnu/4.9.2/ -mtune=corei7 -march=x86-64 -g -O2
REM COMMAND_LINE
REM seed 1606287714 -362910542 -1690546841 432177172 1570846966 1810673551 -1753092588 -2035382529 -531665274 -2130863431 819872872 -607700863
REM
REM S 3|1.8|5|6|7|30:31:32(qc=5)
REM O 2|1.5|12|13|15|20:21(qc=5)
REM Li 1|1.3|8|9|10|10U:20(qc=5)
REM Fe 3|2.2|2.0|1.0|8|9|10|40:41:32(qc=5)
REM Fe d:4.0 
REM
CELL 1.54180    6.32571    6.32571    9.20602   68.19100   68.19100   82.40166
LATT -1
SFAC Li O  S  Fe 
Li     1 -0.3830160000000 -0.1592510000000  0.2157770000000 1.0  -0.01
Li     1  0.1592510000000  0.3830160000000 -0.2157770000000 1.0  -0.01
Li     1 -0.6098860000000  0.1871680000000  0.0763160000000 1.0  -0.01
Li     1 -0.1871680000000  0.6098860000000 -0.0763160000000 1.0  -0.01
Li     1  0.4681510000000  0.4223950000000  0.2436300000000 1.0  -0.03
Li     1 -0.4223950000000 -0.4681510000000 -0.2436300000000 1.0  -0.03
Li     1 -0.1395200000000 -0.1396640000000 -0.3708370000000 1.0  -0.01
Li     1  0.1396640000000  0.1395200000000  0.3708370000000 1.0  -0.01
Li     1 -0.0589160000000 -0.4189460000000  0.1994360000000 1.0  -0.00
Li     1  0.4189460000000  0.0589160000000 -0.1994360000000 1.0  -0.00
O      2  0.4525440000000  0.0802530000000  0.2834860000000 1.0   0.04
O      2 -0.0802530000000 -0.4525440000000 -0.2834860000000 1.0   0.04
O      2  0.3780080000000  0.2945090000000 -0.1256670000000 1.0  -0.00
O      2 -0.2945090000000 -0.3780080000000  0.1256670000000 1.0  -0.00
O      2  0.5466630000000 -0.1372870000000 -0.3136380000000 1.0   0.04
O      2  0.1372870000000 -0.5466630000000  0.3136380000000 1.0   0.04
S      3  0.1362890000000  0.1156920000000 -0.3601620000000 1.0  -0.20
S      3 -0.1156920000000 -0.1362890000000  0.3601620000000 1.0  -0.20
Fe     4  0.0230050000000  0.4927450000000 -0.4866270000000 1.0   3.18
Fe     4 -0.4927450000000 -0.0230050000000  0.4866270000000 1.0   3.18
END
