TITL LFSO-Li5FeS2O2-201026-025529-9f4ff8 0.0093 403.181632 -6.68586617E+003 6.99772 7.54828 20 (Cmm2) n - 1
REM
REM Run started: Mon, 26 Oct 2020 07:46:05 +0000 in /scratch/scratch/uccabz1/launch_tmp/launcher_2020-10-26-02-55-28-206077
REM CASTEP 19.11| from code version Version unavailable
REM Functional Perdew Burke Ernzerhof Relativity Koelling-Harmon Dispersion off
REM Cut-off 340.0000 eV Grid scale 1.7500 Gmax 16.5316 1/A FBSC none
REM MP grid 2 3 3 Offset 0.000 0.000 0.000 No. kpts 6 Spacing 0.07
REM Total runtime: 21098.2 s
REM Overall efficiency: 87.7778 %
REM
REM
REM
REM compiler GCC version 4.9.2
REM options -cpp -iprefix /scratch/UCL/applications/gcc/4.9.2/bin/../lib/gcc/x86_64-unknown-linux-gnu/4.9.2/ -mtune=corei7 -march=x86-64 -g -O2
REM COMMAND_LINE
REM seed 690126262 -1507282895 1640742687 1127088514 -1918016054 -2016488997 -956565213 740854190 1166083301 1688845055 917613585 90207934
REM
REM S 3|1.8|5|6|7|30:31:32(qc=5)
REM O 2|1.5|12|13|15|20:21(qc=5)
REM Li 1|1.3|8|9|10|10U:20(qc=5)
REM Fe 3|2.2|2.0|1.0|8|9|10|40:41:32(qc=5)
REM Fe d:4.0 
REM
CELL 1.54180   11.95190    7.91622    6.49752   90.00000   90.00000  139.01653
LATT -1
SFAC Li O  S  Fe 
Li     1 -0.0012410000000  0.3321550000000  0.4582990000000 1.0  -0.04
Li     1  0.0012410000000 -0.3321550000000  0.4582990000000 1.0  -0.04
Li     1 -0.3333960000000 -0.3321550000000  0.4582990000000 1.0  -0.04
Li     1  0.3333960000000  0.3321550000000  0.4582990000000 1.0  -0.04
Li     1  0.4516590000000  0.3185500000000 -0.1545760000000 1.0  -0.01
Li     1 -0.4516590000000 -0.3185500000000 -0.1545760000000 1.0  -0.01
Li     1  0.1331090000000 -0.3185500000000 -0.1545760000000 1.0  -0.01
Li     1 -0.1331090000000  0.3185500000000 -0.1545760000000 1.0  -0.01
Li     1 -0.3475380000000  0.3049250000000  0.2329530000000 1.0  -0.03
Li     1  0.3475370000000 -0.3049250000000  0.2329530000000 1.0  -0.03
O      2 -0.3310320000000 -0.3654680000000 -0.2648630000000 1.0   0.08
O      2  0.3310320000000  0.3654680000000 -0.2648630000000 1.0   0.08
O      2  0.0344360000000  0.3654680000000 -0.2648630000000 1.0   0.08
O      2 -0.0344360000000 -0.3654680000000 -0.2648630000000 1.0   0.08
S      3 -0.1904130000000  0.2394900000000  0.2187880000000 1.0   0.00
S      3  0.1904130000000 -0.2394900000000  0.2187880000000 1.0   0.00
S      3 -0.4299030000000 -0.2394900000000  0.2187880000000 1.0   0.00
S      3  0.4299030000000  0.2394900000000  0.2187880000000 1.0   0.00
Fe     4  0.1403150000000  0.2806300000000 -0.2467390000000 1.0   3.48
Fe     4 -0.1403150000000 -0.2806300000000 -0.2467390000000 1.0   3.48
END
