TITL LFSO-Li2Fe4S3O2-201026-201709-c33bde 0.0443 537.930502 -1.12610671E+004 29.9949 30.8134 22 (Fmm2) n - 1
REM
REM Run started: Tue, 27 Oct 2020 10:56:41 +0000 in /lustre/scratch/uccabz1/launch_tmp/launcher_2020-10-26-20-17-07-779600
REM CASTEP 20.1 from code version af48c487+ pr-geom-scf-spinfix Tue Jun 2 15:39:59 2020 +0100
REM Functional Perdew Burke Ernzerhof Relativity Koelling-Harmon Dispersion off
REM Cut-off 340.0000 eV Grid scale 1.7500 Gmax 16.5316 1/A FBSC none
REM MP grid 3 3 2 Offset 0.000 0.000 0.000 No. kpts 6 Spacing 0.07
REM Total runtime: 32168.2 s
REM Overall efficiency: 78 %
REM
REM
REM
REM compiler GCC version 4.9.2
REM options -cpp -iprefix /lustre/shared/ucl/apps/gcc/4.9.2/bin/../lib/gcc/x86_64-unknown-linux-gnu/4.9.2/ -mtune=corei7 -march=x86-64 -g -Og
REM COMMAND_LINE
REM seed 34636881 1956628173 -199460836 427244509 1346989863 -847350233 33072340 -1668710417 1255098942 -1140625138 338590732 1535605589
REM
REM S 3|1.8|5|6|7|30:31:32(qc=5)
REM O 2|1.5|12|13|15|20:21(qc=5)
REM Li 1|1.3|8|9|10|10U:20(qc=5)
REM Fe 3|2.2|2.0|1.0|8|9|10|40:41:32(qc=5)
REM Fe d:4.0 
REM
CELL 1.54180    7.97226    7.97226   10.19595  103.75349  103.75349  113.07173
LATT -1
SFAC Li O  S  Fe 
Li     1 -0.1100680000000 -0.8238710000000 -0.5670930000000 1.0  -0.10
Li     1 -0.2567780000000  0.4570250000000  0.5670930000000 1.0  -0.10
Li     1  0.4570250000000  0.7432220000000  0.5670930000000 1.0  -0.10
Li     1  0.1761290000000 -0.1100680000000 -0.5670930000000 1.0  -0.10
O      2  0.2821480000000 -0.1330660000000  0.2946520000000 1.0   0.17
O      2 -0.4277170000000 -0.0125040000000 -0.2946520000000 1.0   0.17
O      2 -0.0125040000000 -0.4277170000000 -0.2946520000000 1.0   0.17
O      2 -0.1330660000000  0.2821480000000  0.2946520000000 1.0   0.17
S      3 -0.3099950000000 -0.1514290000000  0.4273910000000 1.0   0.03
S      3 -0.5788200000000 -0.7373860000000 -0.4273910000000 1.0   0.03
S      3  0.2626140000000 -0.5788200000000 -0.4273910000000 1.0   0.03
S      3 -0.1514290000000  0.6900050000000  0.4273910000000 1.0   0.03
S      3 -0.4865870000000  0.3541910000000  0.0000000000000 1.0  -0.04
S      3  0.3541910000000 -0.4865870000000  0.0000000000000 1.0  -0.04
Fe     4  0.4415910000000  0.1134720000000 -0.2183800000000 1.0   3.59
Fe     4  0.3318520000000  0.6599710000000  0.2183800000000 1.0   3.59
Fe     4  0.6599710000000  0.3318520000000  0.2183800000000 1.0   3.59
Fe     4  0.1134720000000  0.4415910000000 -0.2183800000000 1.0   3.59
Fe     4 -0.1783980000000  0.0693870000000 -0.3094200000000 1.0   3.84
Fe     4  0.3788070000000  0.1310220000000  0.3094200000000 1.0   3.84
Fe     4  0.1310220000000  0.3788070000000  0.3094200000000 1.0   3.84
Fe     4  0.0693870000000 -0.1783980000000 -0.3094200000000 1.0   3.84
END
