TITL LFSO-Li6FeS3O-201027-132323-c6022e 0.0029 532.918245 -6.81806112E+003 7.09532 7.53517 22 (Ama2) n - 1
REM
REM Run started: Tue, 27 Oct 2020 19:55:45 +0000 in /scratch/scratch/uccabz1/launch_tmp/launcher_2020-10-27-13-23-20-962901
REM CASTEP 19.11| from code version Version unavailable
REM Functional Perdew Burke Ernzerhof Relativity Koelling-Harmon Dispersion off
REM Cut-off 340.0000 eV Grid scale 1.7500 Gmax 16.5316 1/A FBSC none
REM MP grid 3 3 2 Offset 0.000 0.000 0.000 No. kpts 4 Spacing 0.07
REM Total runtime: 26407.2 s
REM Overall efficiency: 78.25 %
REM
REM
REM
REM compiler GCC version 4.9.2
REM options -cpp -iprefix /scratch/UCL/applications/gcc/4.9.2/bin/../lib/gcc/x86_64-unknown-linux-gnu/4.9.2/ -mtune=corei7 -march=x86-64 -g -O2
REM COMMAND_LINE
REM seed 259130973 179630050 645304675 -1582398943 905587245 709126094 499953064 786953670 -1635018890 -1465967161 -292378983 -1268678180
REM
REM S 3|1.8|5|6|7|30:31:32(qc=5)
REM O 2|1.5|12|13|15|20:21(qc=5)
REM Li 1|1.3|8|9|10|10U:20(qc=5)
REM Fe 3|2.2|2.0|1.0|8|9|10|40:41:32(qc=5)
REM Fe d:4.0 
REM
CELL 1.54180    6.29692    6.29692   13.44015   90.00000   90.00000   89.91178
LATT -1
SFAC Li O  S  Fe 
Li     1  0.4908200000000  0.3227860000000  0.1564750000000 1.0  -0.01
Li     1  0.3227860000000  0.4908200000000 -0.1564750000000 1.0  -0.01
Li     1  0.3227860000000  0.4908200000000 -0.3435250000000 1.0  -0.01
Li     1  0.4908200000000  0.3227860000000  0.3435250000000 1.0  -0.01
Li     1 -0.0446340000000 -0.4594040000000 -0.0684210000000 1.0  -0.04
Li     1 -0.4594040000000 -0.0446340000000  0.0684210000000 1.0  -0.04
Li     1 -0.4594040000000 -0.0446340000000  0.4315790000000 1.0  -0.04
Li     1 -0.0446340000000 -0.4594040000000 -0.4315790000000 1.0  -0.04
Li     1  0.2715020000000 -0.3181190000000  0.3405660000000 1.0  -0.01
Li     1 -0.3181190000000  0.2715020000000 -0.3405660000000 1.0  -0.01
Li     1 -0.3181190000000  0.2715020000000 -0.1594340000000 1.0  -0.01
Li     1  0.2715020000000 -0.3181190000000  0.1594340000000 1.0  -0.01
O      2  0.3802190000000  0.4995160000000  0.2500000000000 1.0   0.04
O      2  0.4995160000000  0.3802190000000 -0.2500000000000 1.0   0.04
S      3 -0.2519880000000  0.2559370000000  0.4852980000000 1.0  -0.01
S      3  0.2559370000000 -0.2519880000000 -0.4852980000000 1.0  -0.01
S      3  0.2559370000000 -0.2519880000000 -0.0147020000000 1.0  -0.01
S      3 -0.2519880000000  0.2559370000000  0.0147020000000 1.0  -0.01
S      3 -0.0097660000000  0.4242720000000 -0.2500000000000 1.0   0.10
S      3  0.4242720000000 -0.0097660000000  0.2500000000000 1.0   0.10
Fe     4  0.0150440000000  0.0150440000000 -0.0000000000000 1.0   3.54
Fe     4  0.0150440000000  0.0150440000000 -0.5000000000000 1.0   3.54
END
