TITL LFSO-Li4Fe2S3O-201026-145414-ff466a -0.0010 303.872404 -3872.225039720 7.99830 8.14633 10 (C2) n - 1
REM
REM Run started: Mon, 26 Oct 2020 22:06:25 +0000 in /scratch/scratch/uccabz1/launch_tmp/launcher_2020-10-26-14-54-13-246863
REM CASTEP 19.11| from code version Version unavailable
REM Functional Perdew Burke Ernzerhof Relativity Koelling-Harmon Dispersion off
REM Cut-off 340.0000 eV Grid scale 1.7500 Gmax 16.5316 1/A FBSC none
REM MP grid 5 4 4 Offset 0.000 0.000 0.000 No. kpts 26 Spacing 0.07
REM Total runtime: 25795.4 s
REM Overall efficiency: 92.6364 %
REM
REM
REM
REM compiler GCC version 4.9.2
REM options -cpp -iprefix /scratch/UCL/applications/gcc/4.9.2/bin/../lib/gcc/x86_64-unknown-linux-gnu/4.9.2/ -mtune=corei7 -march=x86-64 -g -O2
REM COMMAND_LINE
REM seed -1147843232 -2072482761 -230593376 573256510 1900658923 1374113761 -974293886 186529277 -2123575266 -2076575640 734795287 -1957673771
REM
REM S 3|1.8|5|6|7|30:31:32(qc=5)
REM O 2|1.5|12|13|15|20:21(qc=5)
REM Li 1|1.3|8|9|10|10U:20(qc=5)
REM Fe 3|2.2|2.0|1.0|8|9|10|40:41:32(qc=5)
REM Fe d:4.0 
REM
CELL 1.54180    5.84073   11.95928   11.95928  142.06142   74.80758   74.80758
LATT -1
SFAC Li O  S  Fe 
Li     1 -0.5737790000000 -0.3562350000000 -0.1523590000000 1.0   0.01
Li     1  0.5737790000000  0.1523590000000  0.3562350000000 1.0   0.01
Li     1  0.4387080000000 -0.4582570000000  0.1209790000000 1.0  -0.02
Li     1 -0.4387080000000 -0.1209790000000  0.4582570000000 1.0  -0.02
O      2 -0.5000000000000 -0.2539410000000  0.2539410000000 1.0   0.11
S      3 -0.0097330000000 -0.3463610000000 -0.1339160000000 1.0   0.12
S      3  0.0097330000000  0.1339160000000  0.3463610000000 1.0   0.12
S      3 -0.5000000000000  0.2266220000000 -0.2266220000000 1.0   0.07
Fe     4  0.0275710000000  0.0498080000000 -0.5425590000000 1.0   3.80
Fe     4 -0.0275710000000  0.5425590000000 -0.0498080000000 1.0   3.80
END
