TITL LFSO-Li2Fe4S4O-201024-195018-8661c0 -0.0266 219.440680 -5.50034719E+003 -7.99999 15.4395 11 (R3) n - 1
REM
REM Run started: Sat, 24 Oct 2020 21:26:45 +0100 in /lustre/scratch/uccabz1/launch_tmp/launcher_2020-10-24-18-50-16-487530
REM CASTEP 20.1 from code version af48c487+ pr-geom-scf-spinfix Tue Jun 2 15:39:59 2020 +0100
REM Functional Perdew Burke Ernzerhof Relativity Koelling-Harmon Dispersion off
REM Cut-off 340.0000 eV Grid scale 1.7500 Gmax 16.5316 1/A FBSC none
REM MP grid 3 3 3 Offset 0.000 0.000 0.000 No. kpts 6 Spacing 0.07
REM Total runtime: 5873.93 s
REM Overall efficiency: 74.375 %
REM
REM
REM
REM compiler GCC version 4.9.2
REM options -cpp -iprefix /lustre/shared/ucl/apps/gcc/4.9.2/bin/../lib/gcc/x86_64-unknown-linux-gnu/4.9.2/ -mtune=corei7 -march=x86-64 -g -Og
REM COMMAND_LINE
REM seed -518291902 1232386373 349810216 41605617 447288090 -185852141 -151940831 -1110911120 -1489351042 -1991055002 -1768011090 1651208915
REM
REM S 3|1.8|5|6|7|30:31:32(qc=5)
REM O 2|1.5|12|13|15|20:21(qc=5)
REM Li 1|1.3|8|9|10|10U:20(qc=5)
REM Fe 3|2.2|2.0|1.0|8|9|10|40:41:32(qc=5)
REM Fe d:4.0 
REM
CELL 1.54180    6.29165    6.29165    6.29165   72.17845   72.17845   72.17845
LATT -1
SFAC Li O  S  Fe 
Li     1 -0.3910870000000 -0.3910870000000 -0.3910870000000 1.0   0.03
Li     1 -0.2177440000000 -0.2177440000000 -0.2177440000000 1.0   0.06
O      2 -0.0853780000000 -0.0853780000000 -0.0853780000000 1.0  -0.17
S      3  0.6749800000000  0.0569330000000 -0.5265110000000 1.0  -0.02
S      3 -0.5265110000000  0.6749800000000  0.0569330000000 1.0  -0.02
S      3  0.0569330000000 -0.5265110000000  0.6749800000000 1.0  -0.02
S      3  0.2045810000000  0.2045810000000  0.2045810000000 1.0  -0.11
Fe     4  0.1323500000000 -0.3905460000000 -0.0003750000000 1.0  -3.84
Fe     4 -0.0003750000000  0.1323500000000 -0.3905460000000 1.0  -3.84
Fe     4 -0.3905460000000 -0.0003750000000  0.1323500000000 1.0  -3.84
Fe     4  0.3909370000000  0.3909370000000  0.3909370000000 1.0   3.77
END
