TITL LFSO-Li2Fe3S3O-201026-113757-917ad4 -0.1375 421.515108 -8.66028500E+003 -19.3318 20.0870 18 (Aem2) n - 1
REM
REM Run started: Wed, 28 Oct 2020 12:57:12 +0000 in /lustre/scratch/uccabz1/launch_tmp/launcher_2020-10-28-11-37-22-035642
REM CASTEP 20.1 from code version af48c487+ pr-geom-scf-spinfix Tue Jun 2 15:39:59 2020 +0100
REM Functional Perdew Burke Ernzerhof Relativity Koelling-Harmon Dispersion off
REM Cut-off 340.0000 eV Grid scale 1.7500 Gmax 16.5316 1/A FBSC none
REM MP grid 4 4 1 Offset 0.000 0.000 0.000 No. kpts 6 Spacing 0.07
REM Total runtime: 148621 s
REM Overall efficiency: 97 %
REM
REM
REM
REM compiler GCC version 4.9.2
REM options -cpp -iprefix /lustre/shared/ucl/apps/gcc/4.9.2/bin/../lib/gcc/x86_64-unknown-linux-gnu/4.9.2/ -mtune=corei7 -march=x86-64 -g -Og
REM COMMAND_LINE
REM seed -2015870812 1048477198 706635448 -1211072776 1005700488 22820976 -1744171745 -1366733807 -1554018600 -1687365259 -2056585821 545641440
REM
REM S 3|1.8|5|6|7|30:31:32(qc=5)
REM O 2|1.5|12|13|15|20:21(qc=5)
REM Li 1|1.3|8|9|10|10U:20(qc=5)
REM Fe 3|2.2|2.0|1.0|8|9|10|40:41:32(qc=5)
REM Fe d:4.0 
REM
CELL 1.54180    4.81395    4.81395   21.11864   90.00000   90.00000  120.53939
LATT -1
SFAC Li O  S  Fe 
Li     1 -0.3184520000000 -0.1197550000000 -0.1791590000000 1.0   0.05
Li     1 -0.1197550000000 -0.3184520000000  0.1791590000000 1.0   0.05
Li     1  0.3802450000000  0.1815480000000 -0.1791590000000 1.0   0.05
Li     1  0.1815480000000  0.3802450000000  0.1791590000000 1.0   0.05
O      2 -0.4151390000000  0.0848610000000 -0.1161980000000 1.0  -0.04
O      2  0.0848610000000 -0.4151390000000  0.1161980000000 1.0  -0.04
S      3 -0.4717980000000 -0.4741960000000  0.2687100000000 1.0  -0.01
S      3 -0.4741960000000 -0.4717980000000 -0.2687100000000 1.0  -0.01
S      3  0.0258040000000  0.0282020000000  0.2687100000000 1.0  -0.01
S      3  0.0282020000000  0.0258040000000 -0.2687100000000 1.0  -0.01
S      3 -0.2329400000000  0.2670600000000 -0.4856430000000 1.0  -0.04
S      3  0.2670600000000 -0.2329400000000  0.4856430000000 1.0  -0.04
Fe     4 -0.0225860000000 -0.2101850000000  0.0473460000000 1.0  -3.16
Fe     4 -0.2101850000000 -0.0225860000000 -0.0473460000000 1.0  -3.16
Fe     4  0.2898150000000  0.4774140000000  0.0473460000000 1.0  -3.16
Fe     4  0.4774140000000  0.2898150000000 -0.0473460000000 1.0  -3.16
Fe     4  0.0268620000000 -0.4731380000000 -0.2908970000000 1.0  -3.33
Fe     4 -0.4731380000000  0.0268620000000  0.2908970000000 1.0  -3.33
END
