TITL LFSO-Li5FeS2O2-201026-044516-da512c -0.0285 194.534994 -3.34175799E+003 3.01047 4.37438 10 (I222) n - 1
REM
REM Run started: Mon, 26 Oct 2020 06:08:26 +0000 in /lustre/scratch/uccabz1/launch_tmp/launcher_2020-10-26-04-45-14-965072
REM CASTEP 20.1 from code version af48c487+ pr-geom-scf-spinfix Tue Jun 2 15:39:59 2020 +0100
REM Functional Perdew Burke Ernzerhof Relativity Koelling-Harmon Dispersion off
REM Cut-off 340.0000 eV Grid scale 1.7500 Gmax 16.5316 1/A FBSC none
REM MP grid 4 3 3 Offset 0.000 0.000 0.000 No. kpts 12 Spacing 0.07
REM Total runtime: 5577.27 s
REM Overall efficiency: 94.375 %
REM
REM
REM
REM compiler GCC version 4.9.2
REM options -cpp -iprefix /lustre/shared/ucl/apps/gcc/4.9.2/bin/../lib/gcc/x86_64-unknown-linux-gnu/4.9.2/ -mtune=corei7 -march=x86-64 -g -Og
REM COMMAND_LINE
REM seed -1105430124 -2047405093 -1452109244 -1790281440 -1629393164 -1774986598 -600874281 1934031097 1290336737 -1987740592 1938222668 -108457173
REM
REM S 3|1.8|5|6|7|30:31:32(qc=5)
REM O 2|1.5|12|13|15|20:21(qc=5)
REM Li 1|1.3|8|9|10|10U:20(qc=5)
REM Fe 3|2.2|2.0|1.0|8|9|10|40:41:32(qc=5)
REM Fe d:4.0 
REM
CELL 1.54180    4.78925    7.12101    7.12101  105.52622   70.34984   70.34984
LATT -1
SFAC Li O  S  Fe 
Li     1  0.1560890000000 -0.1278170000000  0.5749010000000 1.0   0.01
Li     1 -0.6031730000000  0.5749010000000 -0.1278170000000 1.0   0.01
Li     1  0.6031730000000 -0.8721830000000 -0.5749010000000 1.0   0.01
Li     1 -0.1560890000000  0.4250990000000  0.1278170000000 1.0   0.01
Li     1  0.0000000000000  0.0000000000000  0.0000000000000 1.0  -0.09
O      2  0.2371240000000 -0.2371240000000 -0.2371240000000 1.0  -0.28
O      2 -0.2371240000000  0.2371240000000  0.2371240000000 1.0  -0.28
S      3  0.5000000000000 -0.1988610000000  0.1988610000000 1.0  -0.08
S      3 -0.5000000000000  0.1988610000000 -0.1988610000000 1.0  -0.08
Fe     4 -0.5000000000000  0.0000000000000  0.0000000000000 1.0   3.78
END
