TITL LFSO-Li6FeS3O-201027-125852-354cca -0.0208 152.951552 -3.40899602E+003 -0.204824E-09 1.60693 11 (P3m1) n - 1
REM
REM Run started: Tue, 27 Oct 2020 13:46:15 +0000 in /scratch/scratch/uccabz1/launch_tmp/launcher_2020-10-27-12-58-51-204019
REM CASTEP 19.11| from code version Version unavailable
REM Functional Perdew Burke Ernzerhof Relativity Koelling-Harmon Dispersion off
REM Cut-off 340.0000 eV Grid scale 1.7500 Gmax 16.5316 1/A FBSC none
REM MP grid 5 3 3 Offset 0.000 0.000 0.000 No. kpts 13 Spacing 0.07
REM Total runtime: 3220.73 s
REM Overall efficiency: 70.5 %
REM
REM
REM
REM compiler GCC version 4.9.2
REM options -cpp -iprefix /scratch/UCL/applications/gcc/4.9.2/bin/../lib/gcc/x86_64-unknown-linux-gnu/4.9.2/ -mtune=corei7 -march=x86-64 -g -O2
REM COMMAND_LINE
REM seed -581409541 -60258403 -182875933 -1782128023 -1101451465 1537929919 -5256498 734331813 -1794343298 1911592337 97871899 -1082935642
REM
REM S 3|1.8|5|6|7|30:31:32(qc=5)
REM O 2|1.5|12|13|15|20:21(qc=5)
REM Li 1|1.3|8|9|10|10U:20(qc=5)
REM Fe 3|2.2|2.0|1.0|8|9|10|40:41:32(qc=5)
REM Fe d:4.0 
REM
CELL 1.54180    3.46520    7.13917    7.13917  120.00000   90.00000   90.00000
LATT -1
SFAC Li O  S  Fe 
Li     1  0.2763320000000  0.2929950000000  0.1461770000000 1.0  -0.00
Li     1  0.2763320000000 -0.1468180000000 -0.2929950000000 1.0  -0.00
Li     1  0.2763320000000 -0.1461770000000  0.1468180000000 1.0  -0.00
Li     1 -0.1788520000000  0.5481940000000  0.0947500000000 1.0  -0.00
Li     1 -0.1788520000000 -0.4534440000000 -0.5481940000000 1.0  -0.00
Li     1 -0.1788520000000 -0.0947500000000  0.4534440000000 1.0  -0.00
O      2  0.1943620000000 -0.3333330000000  0.3333330000000 1.0  -0.00
S      3 -0.2635670000000 -0.3469100000000 -0.1741010000000 1.0  -0.00
S      3 -0.2635670000000  0.1728100000000  0.3469100000000 1.0  -0.00
S      3 -0.2635670000000  0.1741010000000 -0.1728100000000 1.0  -0.00
Fe     4  0.1785550000000  0.3333330000000 -0.3333330000000 1.0   0.02
END
