TITL LFSO-Li2Fe2S2O-201022-064416-bed92a 0.0492 230.883332 -6.33840410E+003 -15.9999 16.1610 14 (C2) n - 1
REM
REM Run started: Fri, 23 Oct 2020 09:31:50 +0100 in /lustre/scratch/uccabz1/launch_tmp/launcher_2020-10-23-00-02-26-120014
REM CASTEP 20.1 from code version af48c487+ pr-geom-scf-spinfix Tue Jun 2 15:39:59 2020 +0100
REM Functional Perdew Burke Ernzerhof Relativity Koelling-Harmon Dispersion off
REM Cut-off 340.0000 eV Grid scale 1.7500 Gmax 16.5316 1/A FBSC none
REM MP grid 5 4 1 Offset 0.000 0.000 0.000 No. kpts 10 Spacing 0.07
REM Total runtime: 95404.4 s
REM Overall efficiency: 75.4545 %
REM
REM
REM
REM compiler GCC version 4.9.2
REM options -cpp -iprefix /lustre/shared/ucl/apps/gcc/4.9.2/bin/../lib/gcc/x86_64-unknown-linux-gnu/4.9.2/ -mtune=corei7 -march=x86-64 -g -Og
REM COMMAND_LINE
REM seed -1067730164 -1329164125 778301702 -1628165301 2060045410 -1203923161 1659676194 -2125219053 567428153 57207013 1932054560 1993624190
REM
REM S 3|1.8|5|6|7|30:31:32(qc=5)
REM O 2|1.5|12|13|15|20:21(qc=5)
REM Li 1|1.3|8|9|10|10U:20(qc=5)
REM Fe 3|2.2|2.0|1.0|8|9|10|40:41:32(qc=5)
REM Fe d:4.0 
REM
CELL 1.54180    3.72517    3.93721   18.07438   81.62120   84.08511   61.76616
LATT -1
SFAC Li O  S  Fe 
Li     1  0.4079010000000  0.3006940000000 -0.0759080000000 1.0  -0.01
Li     1  0.6326870000000 -0.3006920000000  0.0759080000000 1.0  -0.01
Li     1  0.1805750000000 -0.2112730000000  0.3419000000000 1.0   0.07
Li     1  0.3112010000000  0.2112750000000 -0.3419000000000 1.0   0.07
O      2 -0.1266830000000 -0.1285600000000  0.4420940000000 1.0  -0.14
O      2  0.1868500000000  0.1285620000000 -0.4420940000000 1.0  -0.14
S      3 -0.0536490000000  0.0410930000000  0.1102910000000 1.0  -0.15
S      3  0.0977350000000 -0.0410910000000 -0.1102910000000 1.0  -0.15
S      3 -0.0577440000000  0.4331310000000  0.2937740000000 1.0  -0.08
S      3 -0.3308410000000 -0.4331290000000 -0.2937740000000 1.0  -0.08
Fe     4 -0.1394370000000 -0.1998300000000 -0.4392060000000 1.0  -3.91
Fe     4  0.2215260000000  0.1998320000000  0.4392060000000 1.0  -3.91
Fe     4 -0.4109230000000  0.1630780000000  0.2195740000000 1.0  -3.79
Fe     4 -0.0282710000000 -0.1630760000000 -0.2195740000000 1.0  -3.79
END
