TITL LFSO-Li4Fe3S4O-201021-210558-cf8e0d 0.0879 554.432215 -1.00717014E+004 20.6464 23.3770 24 (P3) n - 1
REM
REM Run started: Thu, 22 Oct 2020 04:09:08 +0100 in /lustre/scratch/uccabz1/launch_tmp/launcher_2020-10-21-22-57-31-428484
REM CASTEP 20.1 from code version af48c487+ pr-geom-scf-spinfix Tue Jun 2 15:39:59 2020 +0100
REM Functional Perdew Burke Ernzerhof Relativity Koelling-Harmon Dispersion off
REM Cut-off 340.0000 eV Grid scale 1.7500 Gmax 16.5316 1/A FBSC none
REM MP grid 2 2 2 Offset 0.000 0.000 0.000 No. kpts 4 Spacing 0.07
REM Total runtime: 24715.3 s
REM Overall efficiency: 78.1429 %
REM
REM
REM
REM compiler GCC version 4.9.2
REM options -cpp -iprefix /scratch/UCL/applications/gcc/4.9.2/bin/../lib/gcc/x86_64-unknown-linux-gnu/4.9.2/ -mtune=corei7 -march=x86-64 -g -O2
REM COMMAND_LINE
REM seed 1153080388 1084537438 408933808 1256421137 1143895300 152204252 413694636 -49747023 -227754719 -919223777 1115925956 -1272282690
REM
REM S 3|1.8|5|6|7|30:31:32(qc=5)
REM O 2|1.5|12|13|15|20:21(qc=5)
REM Li 1|1.3|8|9|10|10U:20(qc=5)
REM Fe 3|2.2|2.0|1.0|8|9|10|40:41:32(qc=5)
REM Fe d:4.0 
REM
CELL 1.54180    9.00195    9.00195    7.90031   90.00000   90.00000  120.00000
LATT -1
SFAC Li O  S  Fe 
Li     1  0.1161810000000  0.2240350000000 -0.3589140000000 1.0  -0.02
Li     1 -0.2240350000000 -0.1078520000000 -0.3589140000000 1.0  -0.02
Li     1  0.1078520000000 -0.1161810000000 -0.3589140000000 1.0  -0.02
Li     1 -0.3674220000000 -0.4094690000000  0.3348650000000 1.0  -0.05
Li     1  0.4094690000000  0.0420480000000  0.3348650000000 1.0  -0.05
Li     1 -0.0420480000000  0.3674220000000  0.3348650000000 1.0  -0.05
Li     1 -0.3333340000000  0.3333340000000 -0.2143310000000 1.0   0.00
Li     1  0.3333330000000 -0.3333330000000  0.4487560000000 1.0   0.01
O      2  0.3333330000000 -0.3333330000000 -0.2401700000000 1.0   0.07
O      2 -0.0000000000000  0.0000000000000 -0.3748230000000 1.0  -0.67
S      3  0.3731850000000  0.2528170000000 -0.1312130000000 1.0   0.03
S      3 -0.2528170000000  0.1203690000000 -0.1312130000000 1.0   0.03
S      3 -0.1203690000000 -0.3731850000000 -0.1312130000000 1.0   0.03
S      3  0.2657570000000  0.3845550000000  0.3793920000000 1.0   0.02
S      3 -0.3845550000000 -0.1187980000000  0.3793920000000 1.0   0.02
S      3  0.1187980000000 -0.2657570000000  0.3793920000000 1.0   0.02
S      3 -0.3333340000000  0.3333340000000  0.3744500000000 1.0  -0.27
S      3 -0.0000000000000  0.0000000000000  0.1444920000000 1.0   0.13
Fe     4 -0.2619890000000 -0.0042240000000  0.1272350000000 1.0   3.67
Fe     4  0.0042240000000 -0.2577640000000  0.1272350000000 1.0   3.67
Fe     4  0.2577640000000  0.2619890000000  0.1272350000000 1.0   3.67
Fe     4  0.1048380000000 -0.4113740000000 -0.1572830000000 1.0   3.47
Fe     4  0.4113740000000 -0.4837870000000 -0.1572830000000 1.0   3.47
Fe     4  0.4837870000000 -0.1048380000000 -0.1572830000000 1.0   3.47
END
