TITL LFSO-Li2Fe2S2O-201022-063616-e6e603 0.2401 380.903216 -6.33840199E+003 16.0000 16.2749 14 (C2) n - 1
REM
REM Run started: Thu, 22 Oct 2020 14:33:03 +0100 in /lustre/scratch/uccabz1/launch_tmp/launcher_2020-10-22-05-36-14-554450
REM CASTEP 20.1 from code version af48c487+ pr-geom-scf-spinfix Tue Jun 2 15:39:59 2020 +0100
REM Functional Perdew Burke Ernzerhof Relativity Koelling-Harmon Dispersion off
REM Cut-off 340.0000 eV Grid scale 1.7500 Gmax 16.5316 1/A FBSC none
REM MP grid 4 4 2 Offset 0.000 0.000 0.000 No. kpts 10 Spacing 0.07
REM Total runtime: 34593.7 s
REM Overall efficiency: 94.3333 %
REM
REM
REM
REM compiler GCC version 4.9.2
REM options -cpp -iprefix /lustre/shared/ucl/apps/gcc/4.9.2/bin/../lib/gcc/x86_64-unknown-linux-gnu/4.9.2/ -mtune=corei7 -march=x86-64 -g -Og
REM COMMAND_LINE
REM seed 855214381 -769935076 382590249 259892086 -762814559 -1125501604 -367694394 -861278611 1195023179 -921875985 -1436331486 -1197434178
REM
REM S 3|1.8|5|6|7|30:31:32(qc=5)
REM O 2|1.5|12|13|15|20:21(qc=5)
REM Li 1|1.3|8|9|10|10U:20(qc=5)
REM Fe 3|2.2|2.0|1.0|8|9|10|40:41:32(qc=5)
REM Fe d:4.0 
REM
CELL 1.54180    7.68545    7.68545   17.80760  142.40586  142.40586   57.18385
LATT -1
SFAC Li O  S  Fe 
Li     1 -0.6225880000000  0.0003290000000 -0.4047080000000 1.0  -0.04
Li     1 -0.0003290000000  0.6225880000000  0.4047080000000 1.0  -0.04
Li     1 -0.1128670000000 -0.4860140000000 -0.4252600000000 1.0  -0.07
Li     1  0.4860140000000  0.1128670000000  0.4252600000000 1.0  -0.07
O      2  0.0444690000000 -0.3070000000000  0.3394840000000 1.0   0.19
O      2  0.3070000000000 -0.0444690000000 -0.3394840000000 1.0   0.19
S      3  0.4414350000000  0.0528990000000  0.2550790000000 1.0   0.11
S      3 -0.0528990000000 -0.4414350000000 -0.2550790000000 1.0   0.11
S      3  0.1165640000000  0.2888560000000  0.4288280000000 1.0   0.16
S      3 -0.2888560000000 -0.1165640000000 -0.4288280000000 1.0   0.16
Fe     4  0.5192340000000  0.6834860000000 -0.3217340000000 1.0   3.81
Fe     4 -0.6834860000000 -0.5192340000000  0.3217340000000 1.0   3.81
Fe     4 -0.1440870000000 -0.0517890000000  0.3072670000000 1.0   3.84
Fe     4  0.0517890000000  0.1440870000000 -0.3072670000000 1.0   3.84
END
