TITL LFSO-Li6FeS3O-201027-162622-205402 1.0203 271.628892 -3.40850930E+003 -0.672329E-04 2.43048 11 (R3) n - 1
REM
REM Run started: Tue, 27 Oct 2020 23:15:18 +0000 in /scratch/scratch/uccabz1/launch_tmp/launcher_2020-10-27-16-26-21-165878
REM CASTEP 19.11| from code version Version unavailable
REM Functional Perdew Burke Ernzerhof Relativity Koelling-Harmon Dispersion off
REM Cut-off 340.0000 eV Grid scale 1.7500 Gmax 16.5316 1/A FBSC none
REM MP grid 3 3 3 Offset 0.000 0.000 0.000 No. kpts 6 Spacing 0.07
REM Total runtime: 28752.8 s
REM Overall efficiency: 97 %
REM
REM
REM
REM compiler GCC version 4.9.2
REM options -cpp -iprefix /scratch/UCL/applications/gcc/4.9.2/bin/../lib/gcc/x86_64-unknown-linux-gnu/4.9.2/ -mtune=corei7 -march=x86-64 -g -O2
REM COMMAND_LINE
REM seed -112587802 -1464183661 -2015760764 -1704050441 1616029353 -1737169848 -493006633 -2108241920 1619180983 849199682 1627152372 908706499
REM
REM S 3|1.8|5|6|7|30:31:32(qc=5)
REM O 2|1.5|12|13|15|20:21(qc=5)
REM Li 1|1.3|8|9|10|10U:20(qc=5)
REM Fe 3|2.2|2.0|1.0|8|9|10|40:41:32(qc=5)
REM Fe d:4.0 
REM
CELL 1.54180    7.60706    7.60706    7.60706   54.53667   54.53667   54.53667
LATT -1
SFAC Li O  S  Fe 
Li     1  0.0918910000000 -0.1428490000000 -0.3478380000000 1.0  -0.03
Li     1 -0.3478380000000  0.0918910000000 -0.1428490000000 1.0  -0.03
Li     1 -0.1428490000000 -0.3478380000000  0.0918910000000 1.0  -0.03
Li     1 -0.5046020000000 -0.2797740000000 -0.0702160000000 1.0  -0.01
Li     1 -0.0702160000000 -0.5046020000000 -0.2797740000000 1.0  -0.01
Li     1 -0.2797740000000 -0.0702160000000 -0.5046020000000 1.0  -0.01
O      2 -0.2236580000000 -0.2236580000000 -0.2236580000000 1.0   0.01
S      3  0.2729050000000  0.5766930000000 -0.0649590000000 1.0  -0.14
S      3 -0.0649590000000  0.2729050000000  0.5766930000000 1.0  -0.14
S      3  0.5766930000000 -0.0649590000000  0.2729050000000 1.0  -0.14
Fe     4  0.2630720000000  0.2630720000000  0.2630720000000 1.0   0.54
END
