TITL LFSO-Li5FeS2O2-201026-070640-1d88ba 0.0694 400.263695 -6.68973400E+003 -10.0000 10.0752 20 (P3) n - 1
REM
REM Run started: Mon, 26 Oct 2020 09:19:14 +0000 in /lustre/scratch/uccabz1/launch_tmp/launcher_2020-10-26-07-06-38-530837
REM CASTEP 20.1 from code version af48c487+ pr-geom-scf-spinfix Tue Jun 2 15:39:59 2020 +0100
REM Functional Perdew Burke Ernzerhof Relativity Koelling-Harmon Dispersion off
REM Cut-off 340.0000 eV Grid scale 1.7500 Gmax 16.5316 1/A FBSC none
REM MP grid 3 2 2 Offset 0.000 0.000 0.000 No. kpts 6 Spacing 0.07
REM Total runtime: 8131.16 s
REM Overall efficiency: 74.375 %
REM
REM
REM
REM compiler GCC version 4.9.2
REM options -cpp -iprefix /lustre/shared/ucl/apps/gcc/4.9.2/bin/../lib/gcc/x86_64-unknown-linux-gnu/4.9.2/ -mtune=corei7 -march=x86-64 -g -Og
REM COMMAND_LINE
REM seed -474073346 1350451325 -2094311535 -1383388952 852582848 -1103149898 740511163 1021076976 -659242627 1537238150 399375509 1049042009
REM
REM S 3|1.8|5|6|7|30:31:32(qc=5)
REM O 2|1.5|12|13|15|20:21(qc=5)
REM Li 1|1.3|8|9|10|10U:20(qc=5)
REM Fe 3|2.2|2.0|1.0|8|9|10|40:41:32(qc=5)
REM Fe d:4.0 
REM
CELL 1.54180    5.96968    8.79898    8.79898  120.00000   90.00000   90.00000
LATT -1
SFAC Li O  S  Fe 
Li     1  0.3249460000000  0.4574030000000  0.0384690000000 1.0   0.01
Li     1  0.3249460000000 -0.4189340000000 -0.4574030000000 1.0   0.01
Li     1  0.3249460000000 -0.0384690000000  0.4189340000000 1.0   0.01
Li     1 -0.0807680000000 -0.3622010000000  0.0940590000000 1.0  -0.00
Li     1 -0.0807680000000 -0.5437400000000  0.3622010000000 1.0  -0.00
Li     1 -0.0807680000000 -0.0940590000000  0.5437400000000 1.0  -0.00
Li     1 -0.4223960000000 -0.4369620000000 -0.1235120000000 1.0  -0.01
Li     1 -0.4223960000000  0.3134500000000  0.4369620000000 1.0  -0.01
Li     1 -0.4223960000000  0.1235120000000 -0.3134500000000 1.0  -0.01
Li     1  0.3261310000000  0.3333330000000 -0.3333330000000 1.0   0.04
O      2 -0.3896570000000  0.5783340000000  0.0917770000000 1.0  -0.27
O      2 -0.3896570000000 -0.4865570000000 -0.5783340000000 1.0  -0.27
O      2 -0.3896570000000 -0.0917770000000  0.4865570000000 1.0  -0.27
O      2  0.6205880000000  0.3333330000000 -0.3333330000000 1.0  -0.22
S      3  0.1226900000000  0.1628720000000 -0.2356000000000 1.0  -0.29
S      3  0.1226900000000 -0.3984720000000 -0.1628720000000 1.0  -0.29
S      3  0.1226900000000  0.2356000000000  0.3984720000000 1.0  -0.29
S      3  0.1446530000000 -0.3333330000000  0.3333330000000 1.0  -0.17
Fe     4 -0.4435830000000 -0.3333330000000  0.3333330000000 1.0  -4.03
Fe     4 -0.0659550000000  0.3333330000000 -0.3333330000000 1.0  -3.94
END
