TITL LFSO-Li5FeS2O2-201025-101804-de6a0c -0.0759 162.813937 -3.34547527E+003 3.00000 3.57530 10 (P-1) n - 1
REM
REM Run started: Sun, 25 Oct 2020 12:10:52 +0000 in /scratch/scratch/uccabz1/launch_tmp/launcher_2020-10-25-10-18-02-800826
REM CASTEP 19.11| from code version Version unavailable
REM Functional Perdew Burke Ernzerhof Relativity Koelling-Harmon Dispersion off
REM Cut-off 340.0000 eV Grid scale 1.7500 Gmax 16.5316 1/A FBSC none
REM MP grid 3 4 4 Offset 0.000 0.000 0.000 No. kpts 24 Spacing 0.07
REM Total runtime: 7629.53 s
REM Overall efficiency: 78.8333 %
REM
REM
REM
REM compiler GCC version 4.9.2
REM options -cpp -iprefix /scratch/UCL/applications/gcc/4.9.2/bin/../lib/gcc/x86_64-unknown-linux-gnu/4.9.2/ -mtune=corei7 -march=x86-64 -g -O2
REM COMMAND_LINE
REM seed 187945381 91792483 -666801406 281158172 1968456855 -1099793282 948251819 -1187213500 -925975910 474619223 2017784306 -1840546950
REM
REM S 3|1.8|5|6|7|30:31:32(qc=5)
REM O 2|1.5|12|13|15|20:21(qc=5)
REM Li 1|1.3|8|9|10|10U:20(qc=5)
REM Fe 3|2.2|2.0|1.0|8|9|10|40:41:32(qc=5)
REM Fe d:4.0 
REM
CELL 1.54180   10.34248    7.34808    4.47412  116.79992  122.36482   34.54278
LATT -1
SFAC Li O  S  Fe 
Li     1  0.3183210000000  0.0217810000000  0.3260860000000 1.0  -0.02
Li     1 -0.3183210000000 -0.0217810000000 -0.3260860000000 1.0  -0.02
Li     1  0.1256530000000 -0.2929660000000 -0.0984340000000 1.0  -0.02
Li     1 -0.1256530000000  0.2929660000000  0.0984340000000 1.0  -0.02
Li     1  0.0000000000000  0.0000000000000 -0.5000000000000 1.0   0.00
O      2 -0.2089640000000  0.1038060000000 -0.2914130000000 1.0   0.04
O      2  0.2089640000000 -0.1038060000000  0.2914130000000 1.0   0.04
S      3  0.2753630000000  0.4418760000000 -0.6195570000000 1.0  -0.09
S      3 -0.2753630000000 -0.4418760000000  0.6195570000000 1.0  -0.09
Fe     4  0.5000000000000  0.5000000000000  0.5000000000000 1.0   3.17
END
