TITL LFSO-Li2Fe3S2O2-201022-094256-fa4e57 0.0283 201.403485 -4.46470941E+003 6.00536 7.40094 9 (R3) n - 1
REM
REM Run started: Thu, 22 Oct 2020 22:52:18 +0100 in /lustre/scratch/uccabz1/launch_tmp/launcher_2020-10-22-08-42-54-806113
REM CASTEP 20.1 from code version af48c487+ pr-geom-scf-spinfix Tue Jun 2 15:39:59 2020 +0100
REM Functional Perdew Burke Ernzerhof Relativity Koelling-Harmon Dispersion off
REM Cut-off 340.0000 eV Grid scale 1.7500 Gmax 16.5316 1/A FBSC none
REM MP grid 4 4 4 Offset 0.000 0.000 0.000 No. kpts 12 Spacing 0.07
REM Total runtime: 49114.1 s
REM Overall efficiency: 97.2143 %
REM
REM
REM
REM compiler GCC version 4.9.2
REM options -cpp -iprefix /lustre/shared/ucl/apps/gcc/4.9.2/bin/../lib/gcc/x86_64-unknown-linux-gnu/4.9.2/ -mtune=corei7 -march=x86-64 -g -Og
REM COMMAND_LINE
REM seed -1012438233 507219764 1284796724 -887282300 -711465833 -329142418 -1235098496 984878058 -1917144069 -506142970 -1568469501 1566462920
REM
REM S 3|1.8|5|6|7|30:31:32(qc=5)
REM O 2|1.5|12|13|15|20:21(qc=5)
REM Li 1|1.3|8|9|10|10U:20(qc=5)
REM Fe 3|2.2|2.0|1.0|8|9|10|40:41:32(qc=5)
REM Fe d:4.0 
REM
CELL 1.54180    8.58694    8.58694    8.58694   36.58709   36.58709   36.58709
LATT -1
SFAC Li O  S  Fe 
Li     1 -0.0846300000000 -0.0846300000000 -0.0846300000000 1.0  -0.01
Li     1 -0.4746850000000 -0.4746850000000 -0.4746850000000 1.0  -0.00
O      2 -0.0140180000000 -0.0140180000000 -0.0140180000000 1.0  -0.13
O      2  0.0844430000000  0.0844430000000  0.0844430000000 1.0  -0.34
S      3  0.4255010000000  0.4255010000000  0.4255010000000 1.0  -0.18
S      3 -0.3666100000000 -0.3666100000000 -0.3666100000000 1.0  -0.10
Fe     4 -0.2526150000000  0.0320240000000  0.3262760000000 1.0   2.25
Fe     4  0.0320240000000  0.3262760000000 -0.2526150000000 1.0   2.25
Fe     4  0.3262760000000 -0.2526150000000  0.0320240000000 1.0   2.25
END
