TITL LFSO-Li2Fe3S2O2-201024-020212-cd6d44 0.0240 528.323430 -8.93678729E+003 -23.9998 24.4612 18 (C222) n - 1
REM
REM Run started: Sat, 24 Oct 2020 09:30:35 +0100 in /lustre/scratch/uccabz1/launch_tmp/launcher_2020-10-24-01-02-11-121748
REM CASTEP 20.1 from code version af48c487+ pr-geom-scf-spinfix Tue Jun 2 15:39:59 2020 +0100
REM Functional Perdew Burke Ernzerhof Relativity Koelling-Harmon Dispersion off
REM Cut-off 340.0000 eV Grid scale 1.7500 Gmax 16.5316 1/A FBSC none
REM MP grid 3 3 2 Offset 0.000 0.000 0.000 No. kpts 4 Spacing 0.07
REM Total runtime: 29820.8 s
REM Overall efficiency: 81.8462 %
REM
REM
REM
REM compiler GCC version 4.9.2
REM options -cpp -iprefix /lustre/shared/ucl/apps/gcc/4.9.2/bin/../lib/gcc/x86_64-unknown-linux-gnu/4.9.2/ -mtune=corei7 -march=x86-64 -g -Og
REM COMMAND_LINE
REM seed -1154342898 -1446902423 -1809249366 -1308770328 -4055693 1769802663 530117987 -788757917 1899472300 -561617282 17594246 1360593917
REM
REM S 3|1.8|5|6|7|30:31:32(qc=5)
REM O 2|1.5|12|13|15|20:21(qc=5)
REM Li 1|1.3|8|9|10|10U:20(qc=5)
REM Fe 3|2.2|2.0|1.0|8|9|10|40:41:32(qc=5)
REM Fe d:4.0 
REM
CELL 1.54180    7.56821    7.28933   11.20489   90.00000   90.00000  121.27384
LATT -1
SFAC Li O  S  Fe 
Li     1 -0.3479320000000 -0.2748790000000 -0.7038930000000 1.0   0.00
Li     1  0.3479320000000  0.2748780000000 -0.7038930000000 1.0   0.00
Li     1  0.0730540000000 -0.2748790000000  0.7038930000000 1.0   0.00
Li     1 -0.0730540000000  0.2748780000000  0.7038930000000 1.0   0.00
O      2 -0.2544410000000 -0.0116040000000  0.2346190000000 1.0  -0.19
O      2  0.2544410000000  0.0116040000000  0.2346190000000 1.0  -0.19
O      2  0.2428370000000 -0.0116040000000 -0.2346190000000 1.0  -0.19
O      2 -0.2428370000000  0.0116040000000 -0.2346190000000 1.0  -0.19
S      3 -0.2892250000000 -0.5679400000000 -0.2491950000000 1.0  -0.16
S      3  0.2892240000000  0.5679400000000 -0.2491950000000 1.0  -0.16
S      3 -0.2787160000000 -0.5679400000000  0.2491950000000 1.0  -0.16
S      3  0.2787160000000  0.5679400000000  0.2491950000000 1.0  -0.16
Fe     4  0.3294870000000  0.2769400000000 -0.2225090000000 1.0  -3.77
Fe     4 -0.3294880000000 -0.2769400000000 -0.2225090000000 1.0  -3.77
Fe     4 -0.0525480000000  0.2769400000000  0.2225090000000 1.0  -3.77
Fe     4  0.0525470000000 -0.2769400000000  0.2225090000000 1.0  -3.77
Fe     4  0.5000000000000 -0.0000000000000 -0.2227550000000 1.0  -3.79
Fe     4 -0.5000000000000 -0.0000000000000  0.2227550000000 1.0  -3.79
END
