TITL LFSO-Li2Fe4S4O-201023-095648-df1aa2 -0.3744 433.034105 -5.50084575E+003 -16.0000 16.1912 11 (C2) n - 1
REM
REM Run started: Sat, 24 Oct 2020 10:33:22 +0100 in /lustre/scratch/uccabz1/launch_tmp/launcher_2020-10-23-08-56-46-438926
REM CASTEP 20.1 from code version af48c487+ pr-geom-scf-spinfix Tue Jun 2 15:39:59 2020 +0100
REM Functional Perdew Burke Ernzerhof Relativity Koelling-Harmon Dispersion off
REM Cut-off 340.0000 eV Grid scale 1.7500 Gmax 16.5316 1/A FBSC none
REM MP grid 4 4 1 Offset 0.000 0.000 0.000 No. kpts 6 Spacing 0.07
REM Total runtime: 100893 s
REM Overall efficiency: 72.8462 %
REM
REM
REM
REM compiler GCC version 4.9.2
REM options -cpp -iprefix /lustre/shared/ucl/apps/gcc/4.9.2/bin/../lib/gcc/x86_64-unknown-linux-gnu/4.9.2/ -mtune=corei7 -march=x86-64 -g -Og
REM COMMAND_LINE
REM seed 451411775 -1143680401 1385888555 1021959037 42813078 -1149432806 -1967618533 -1903319884 136034241 326603049 -1229124104 1617279588
REM
REM S 3|1.8|5|6|7|30:31:32(qc=5)
REM O 2|1.5|12|13|15|20:21(qc=5)
REM Li 1|1.3|8|9|10|10U:20(qc=5)
REM Fe 3|2.2|2.0|1.0|8|9|10|40:41:32(qc=5)
REM Fe d:4.0 
REM
CELL 1.54180    6.31635    6.31635   17.57212   89.08891   89.08891  141.79964
LATT -1
SFAC Li O  S  Fe 
Li     1 -0.5052670000000  0.0480530000000 -0.4471110000000 1.0   0.05
Li     1 -0.0480530000000  0.5052670000000  0.4471110000000 1.0   0.05
O      2 -0.4220580000000  0.4220580000000 -0.5000000000000 1.0  -0.19
S      3 -0.2101580000000  0.6317140000000  0.2880300000000 1.0  -0.14
S      3 -0.6317140000000  0.2101580000000 -0.2880300000000 1.0  -0.14
S      3  0.5397740000000 -0.0585110000000  0.4070490000000 1.0  -0.12
S      3  0.0585110000000 -0.5397740000000 -0.4070490000000 1.0  -0.12
Fe     4  0.3617580000000  0.3778610000000 -0.4102350000000 1.0  -3.82
Fe     4 -0.3778610000000 -0.3617580000000  0.4102350000000 1.0  -3.82
Fe     4 -0.0358440000000 -0.3832200000000 -0.3040010000000 1.0  -3.88
Fe     4  0.3832200000000  0.0358440000000  0.3040010000000 1.0  -3.88
END
