TITL LFSO-Li2FeSO-201024-232044-4b3e13 -0.1079 337.458135 -3.99006378E+003 10.1484 10.8539 10 (Pmmn) n - 1
REM
REM Run started: Sun, 25 Oct 2020 09:21:43 +0000 in /lustre/scratch/uccabz1/launch_tmp/launcher_2020-10-24-22-20-42-867014
REM CASTEP 20.1 from code version af48c487+ pr-geom-scf-spinfix Tue Jun 2 15:39:59 2020 +0100
REM Functional Perdew Burke Ernzerhof Relativity Koelling-Harmon Dispersion off
REM Cut-off 340.0000 eV Grid scale 1.7500 Gmax 16.5316 1/A FBSC none
REM MP grid 6 3 1 Offset 0.000 0.000 0.000 No. kpts 6 Spacing 0.07
REM Total runtime: 45638.8 s
REM Overall efficiency: 93.4167 %
REM
REM
REM
REM compiler GCC version 4.9.2
REM options -cpp -iprefix /lustre/shared/ucl/apps/gcc/4.9.2/bin/../lib/gcc/x86_64-unknown-linux-gnu/4.9.2/ -mtune=corei7 -march=x86-64 -g -Og
REM COMMAND_LINE
REM seed -1116590339 -246206231 1184990510 -1138634829 64203049 459242236 -873707911 -333370229 508641169 1866241645 1582851301 -942240463
REM
REM S 3|1.8|5|6|7|30:31:32(qc=5)
REM O 2|1.5|12|13|15|20:21(qc=5)
REM Li 1|1.3|8|9|10|10U:20(qc=5)
REM Fe 3|2.2|2.0|1.0|8|9|10|40:41:32(qc=5)
REM Fe d:4.0 
REM
CELL 1.54180    2.63101    5.08522   25.22250   90.00000   90.00000   90.00000
LATT -1
SFAC Li O  S  Fe 
Li     1 -0.5000000000000  0.2517750000000  0.3910450000000 1.0  -0.13
Li     1  0.5000000000000 -0.2517750000000  0.3910450000000 1.0  -0.13
Li     1  0.0000000000000 -0.2482250000000 -0.3910450000000 1.0  -0.13
Li     1  0.0000000000000  0.2482250000000 -0.3910450000000 1.0  -0.13
O      2  0.0000000000000  0.5000000000000  0.0007070000000 1.0   2.00
O      2 -0.5000000000000 -0.0000000000000 -0.0007070000000 1.0   2.00
S      3  0.0000000000000 -0.0000000000000 -0.3191740000000 1.0   0.11
S      3 -0.5000000000000  0.5000000000000  0.3191740000000 1.0   0.11
Fe     4  0.0000000000000 -0.0000000000000  0.4896640000000 1.0   3.23
Fe     4  0.5000000000000  0.5000000000000 -0.4896640000000 1.0   3.23
END
