TITL LFSO-LiFe3S4O-201028-152211-981f1f -0.8599 192.284437 -4.43643602E+003 11.0223 11.8351 9 (Cm) n - 1
REM
REM Run started: Wed, 28 Oct 2020 20:08:27 +0000 in /scratch/scratch/uccabz1/launch_tmp/launcher_2020-10-28-15-22-10-070834
REM CASTEP 19.11| from code version Version unavailable
REM Functional Perdew Burke Ernzerhof Relativity Koelling-Harmon Dispersion off
REM Cut-off 340.0000 eV Grid scale 1.7500 Gmax 16.5316 1/A FBSC none
REM MP grid 4 3 3 Offset 0.000 0.000 0.000 No. kpts 12 Spacing 0.07
REM Total runtime: 18561.3 s
REM Overall efficiency: 97.1667 %
REM
REM
REM
REM compiler GCC version 4.9.2
REM options -cpp -iprefix /scratch/UCL/applications/gcc/4.9.2/bin/../lib/gcc/x86_64-unknown-linux-gnu/4.9.2/ -mtune=corei7 -march=x86-64 -g -O2
REM COMMAND_LINE
REM seed 1212244757 -751181500 -575163216 1045123875 -1592250502 281203337 595007768 -1524131089 807613316 619520529 -2003549521 890028139
REM
REM S 3|1.8|5|6|7|30:31:32(qc=5)
REM O 2|1.5|12|13|15|20:21(qc=5)
REM Li 1|1.3|8|9|10|10U:20(qc=5)
REM Fe 3|2.2|2.0|1.0|8|9|10|40:41:32(qc=5)
REM Fe d:4.0 
REM
CELL 1.54180    3.69114    7.69011    8.01499  118.66797  103.62976   90.00000
LATT -1
SFAC Li O  S  Fe 
Li     1 -0.2165380000000  0.0806650000000  0.1613300000000 1.0   0.01
O      2 -0.3490210000000  0.4574830000000 -0.0850350000000 1.0   0.39
S      3  0.2919730000000 -0.1610210000000  0.1535480000000 1.0  -0.12
S      3  0.2919730000000  0.3145680000000  0.1535480000000 1.0  -0.12
S      3  0.0252520000000  0.0768030000000 -0.3278400000000 1.0  -0.08
S      3  0.0252520000000 -0.4046430000000 -0.3278400000000 1.0  -0.08
Fe     4  0.4287730000000 -0.0597890000000 -0.5238590000000 1.0   3.66
Fe     4  0.4287730000000 -0.4640710000000 -0.5238590000000 1.0   3.66
Fe     4  0.1581880000000  0.4601260000000 -0.0797470000000 1.0   3.73
END
