TITL LFSO-Li5FeS2O2-201025-174359-e6195d -0.0859 670.888987 -6.68864839E+003 8.00000 8.43280 20 (Pm) n - 1
REM
REM Run started: Mon, 26 Oct 2020 01:54:47 +0000 in /lustre/scratch/uccabz1/launch_tmp/launcher_2020-10-25-17-43-57-517862
REM CASTEP 20.1 from code version af48c487+ pr-geom-scf-spinfix Tue Jun 2 15:39:59 2020 +0100
REM Functional Perdew Burke Ernzerhof Relativity Koelling-Harmon Dispersion off
REM Cut-off 340.0000 eV Grid scale 1.7500 Gmax 16.5316 1/A FBSC none
REM MP grid 2 3 3 Offset 0.000 0.000 0.000 No. kpts 5 Spacing 0.07
REM Total runtime: 33451.4 s
REM Overall efficiency: 76.4167 %
REM
REM
REM
REM compiler GCC version 4.9.2
REM options -cpp -iprefix /lustre/shared/ucl/apps/gcc/4.9.2/bin/../lib/gcc/x86_64-unknown-linux-gnu/4.9.2/ -mtune=corei7 -march=x86-64 -g -Og
REM COMMAND_LINE
REM seed -406973119 337736185 92310042 557150794 -1805600323 -1445281509 -945023819 -671185698 -435721165 1108534833 -1021791192 -965136090
REM
REM S 3|1.8|5|6|7|30:31:32(qc=5)
REM O 2|1.5|12|13|15|20:21(qc=5)
REM Li 1|1.3|8|9|10|10U:20(qc=5)
REM Fe 3|2.2|2.0|1.0|8|9|10|40:41:32(qc=5)
REM Fe d:4.0 
REM
CELL 1.54180   14.53453    7.71802    7.41289  126.21732   90.00000   90.00000
LATT -1
SFAC Li O  S  Fe 
Li     1  0.1717490000000 -0.5204920000000  0.1499990000000 1.0  -0.00
Li     1 -0.1717490000000 -0.5204920000000  0.1499990000000 1.0  -0.00
Li     1  0.2672230000000  0.1011490000000 -0.0295550000000 1.0  -0.01
Li     1 -0.2672230000000  0.1011490000000 -0.0295550000000 1.0  -0.01
Li     1 -0.2032020000000 -0.3692850000000 -0.3561340000000 1.0  -0.01
Li     1  0.2032020000000 -0.3692850000000 -0.3561340000000 1.0  -0.01
Li     1  0.1562030000000 -0.0362680000000  0.1326350000000 1.0  -0.02
Li     1 -0.1562030000000 -0.0362680000000  0.1326350000000 1.0  -0.02
Li     1 -0.1403330000000  0.0069770000000 -0.2532270000000 1.0  -0.02
Li     1  0.1403330000000  0.0069770000000 -0.2532270000000 1.0  -0.02
O      2 -0.1863250000000 -0.1138670000000 -0.1329420000000 1.0   0.02
O      2  0.1863250000000 -0.1138670000000 -0.1329420000000 1.0   0.02
O      2 -0.2134040000000  0.2640600000000 -0.1232450000000 1.0   0.11
O      2  0.2134040000000  0.2640600000000 -0.1232450000000 1.0   0.11
S      3 -0.2498040000000  0.3045560000000  0.3637140000000 1.0   0.03
S      3  0.2498040000000  0.3045560000000  0.3637140000000 1.0   0.03
S      3 -0.0755070000000 -0.1738460000000  0.3490420000000 1.0   0.04
S      3  0.0755070000000 -0.1738460000000  0.3490420000000 1.0   0.04
Fe     4 -0.2260640000000  0.2532990000000 -0.3715650000000 1.0   3.85
Fe     4  0.2260640000000  0.2532990000000 -0.3715650000000 1.0   3.85
END
