TITL LFSO-Li6FeSO3-201028-090424-90a10f 0.0380 141.402208 -3.67806723E+003 3.72698 3.89660 11 (Imm2) n - 1
REM
REM Run started: Wed, 28 Oct 2020 11:19:04 +0000 in /scratch/scratch/uccabz1/launch_tmp/launcher_2020-10-28-09-04-22-848859
REM CASTEP 19.11| from code version Version unavailable
REM Functional Perdew Burke Ernzerhof Relativity Koelling-Harmon Dispersion off
REM Cut-off 340.0000 eV Grid scale 1.7500 Gmax 16.5316 1/A FBSC none
REM MP grid 5 5 5 Offset 0.000 0.000 0.000 No. kpts 27 Spacing 0.07
REM Total runtime: 8263.64 s
REM Overall efficiency: 95.7143 %
REM
REM
REM
REM compiler GCC version 4.9.2
REM options -cpp -iprefix /scratch/UCL/applications/gcc/4.9.2/bin/../lib/gcc/x86_64-unknown-linux-gnu/4.9.2/ -mtune=corei7 -march=x86-64 -g -O2
REM COMMAND_LINE
REM seed -795676614 -245548870 -855511007 -1523313310 -1615427411 675383550 1236434224 148501441 -157212568 -682857929 604180047 -1128675854
REM
REM S 3|1.8|5|6|7|30:31:32(qc=5)
REM O 2|1.5|12|13|15|20:21(qc=5)
REM Li 1|1.3|8|9|10|10U:20(qc=5)
REM Fe 3|2.2|2.0|1.0|8|9|10|40:41:32(qc=5)
REM Fe d:4.0 
REM
CELL 1.54180    5.24000    8.00539    8.00539  132.86348   70.89628   70.89628
LATT -1
SFAC Li O  S  Fe 
Li     1 -0.5376100000000  0.5071860000000  0.1083060000000 1.0  -0.04
Li     1 -0.0778820000000  0.1083060000000  0.5071860000000 1.0  -0.04
Li     1 -0.0778820000000  0.5071860000000  0.1083060000000 1.0  -0.04
Li     1 -0.5376100000000  0.1083060000000  0.5071860000000 1.0  -0.04
Li     1  0.1769830000000 -0.0865720000000 -0.2673930000000 1.0   0.00
Li     1  0.1769830000000 -0.2673930000000 -0.0865720000000 1.0   0.00
O      2  0.1595950000000  0.0569270000000 -0.3761170000000 1.0   0.00
O      2  0.1595950000000 -0.3761170000000  0.0569270000000 1.0   0.00
O      2  0.6783960000000 -0.1783960000000 -0.1783960000000 1.0   0.17
S      3 -0.3232210000000  0.3232210000000  0.3232210000000 1.0   0.07
Fe     4 -0.8209040000000  0.3209040000000  0.3209040000000 1.0   3.64
END
