TITL LFSO-Li3FeS2O-201025-002612-888bcf 0.0021 341.093251 -7.51855621E+003 -5.00000 11.1353 21 (I222) n - 1
REM
REM Run started: Sun, 25 Oct 2020 05:32:15 +0000 in /lustre/scratch/uccabz1/launch_tmp/launcher_2020-10-24-23-26-10-948911
REM CASTEP 20.1 from code version af48c487+ pr-geom-scf-spinfix Tue Jun 2 15:39:59 2020 +0100
REM Functional Perdew Burke Ernzerhof Relativity Koelling-Harmon Dispersion off
REM Cut-off 340.0000 eV Grid scale 1.7500 Gmax 16.5316 1/A FBSC none
REM MP grid 3 3 3 Offset 0.000 0.000 0.000 No. kpts 8 Spacing 0.07
REM Total runtime: 22094.7 s
REM Overall efficiency: 96.625 %
REM
REM
REM
REM compiler GCC version 4.9.2
REM options -cpp -iprefix /lustre/shared/ucl/apps/gcc/4.9.2/bin/../lib/gcc/x86_64-unknown-linux-gnu/4.9.2/ -mtune=corei7 -march=x86-64 -g -Og
REM COMMAND_LINE
REM seed 1378756077 244223266 384751521 1068148062 284504073 -2113809023 -1338171360 371799579 388495372 18415732 754861525 -1195531526
REM
REM S 3|1.8|5|6|7|30:31:32(qc=5)
REM O 2|1.5|12|13|15|20:21(qc=5)
REM Li 1|1.3|8|9|10|10U:20(qc=5)
REM Fe 3|2.2|2.0|1.0|8|9|10|40:41:32(qc=5)
REM Fe d:4.0 
REM
CELL 1.54180    7.92485    7.92485    7.92485   87.33262  125.23260  118.01096
LATT -1
SFAC Li O  S  Fe 
Li     1 -0.0095120000000 -0.2287800000000  0.0097930000000 1.0  -0.02
Li     1  0.0095120000000  0.0193050000000 -0.2192680000000 1.0  -0.02
Li     1 -0.2385730000000 -0.0193050000000 -0.0097930000000 1.0  -0.02
Li     1  0.2385730000000  0.2287800000000  0.2192680000000 1.0  -0.02
Li     1 -0.3370320000000 -0.3335910000000  0.3857950000000 1.0  -0.05
Li     1  0.3370320000000 -0.2771730000000  0.0034410000000 1.0  -0.05
Li     1  0.2806140000000  0.2771730000000 -0.3857950000000 1.0  -0.05
Li     1 -0.2806140000000  0.3335910000000 -0.0034410000000 1.0  -0.05
Li     1  0.5000000000000  0.0000000000000 -0.5000000000000 1.0   0.06
O      2  0.2495800000000  0.5000000000000 -0.2504200000000 1.0  -0.03
O      2 -0.2495800000000 -0.5000000000000  0.2504200000000 1.0  -0.03
O      2 -0.0000000000000  0.0000000000000  0.0000000000000 1.0  -0.01
S      3  0.6532810000000  0.3749650000000  0.6405560000000 1.0  -0.04
S      3 -0.6532810000000 -0.0127250000000 -0.2783160000000 1.0  -0.04
S      3 -0.2655910000000  0.0127250000000 -0.6405560000000 1.0  -0.04
S      3  0.2655910000000 -0.3749650000000  0.2783160000000 1.0  -0.04
S      3 -0.0000000000000 -0.2883590000000 -0.2883590000000 1.0  -0.05
S      3 -0.0000000000000  0.2883590000000  0.2883590000000 1.0  -0.05
Fe     4 -0.1527820000000  0.3472180000000  0.5000000000000 1.0  -3.75
Fe     4  0.1527820000000 -0.3472180000000 -0.5000000000000 1.0  -3.75
Fe     4 -0.5000000000000 -0.5000000000000  0.0000000000000 1.0   3.06
END
