TITL LFSO-Li5FeSO3-201026-220007-184ffe 0.0528 311.101581 -6.95466672E+003 9.35250 9.66178 20 (P21212) n - 1
REM
REM Run started: Tue, 27 Oct 2020 00:30:44 +0000 in /lustre/scratch/uccabz1/launch_tmp/launcher_2020-10-26-22-00-05-351363
REM CASTEP 20.1 from code version af48c487+ pr-geom-scf-spinfix Tue Jun 2 15:39:59 2020 +0100
REM Functional Perdew Burke Ernzerhof Relativity Koelling-Harmon Dispersion off
REM Cut-off 340.0000 eV Grid scale 1.7500 Gmax 16.5316 1/A FBSC none
REM MP grid 3 3 2 Offset 0.000 0.000 0.000 No. kpts 4 Spacing 0.07
REM Total runtime: 9850.77 s
REM Overall efficiency: 79.6154 %
REM
REM
REM
REM compiler GCC version 4.9.2
REM options -cpp -iprefix /lustre/shared/ucl/apps/gcc/4.9.2/bin/../lib/gcc/x86_64-unknown-linux-gnu/4.9.2/ -mtune=corei7 -march=x86-64 -g -Og
REM COMMAND_LINE
REM seed -1219438803 -1710658082 -1116942754 1958324762 -510240107 1500877123 1683702529 1443428689 1174660621 930257826 1171413384 -1828475683
REM
REM S 3|1.8|5|6|7|30:31:32(qc=5)
REM O 2|1.5|12|13|15|20:21(qc=5)
REM Li 1|1.3|8|9|10|10U:20(qc=5)
REM Fe 3|2.2|2.0|1.0|8|9|10|40:41:32(qc=5)
REM Fe d:4.0 
REM
CELL 1.54180    5.53581    5.83326    9.63406   90.00000   90.00000   90.00000
LATT -1
SFAC Li O  S  Fe 
Li     1  0.2117530000000 -0.2366350000000 -0.2517310000000 1.0  -0.06
Li     1 -0.2117530000000  0.2366350000000 -0.2517310000000 1.0  -0.06
Li     1  0.2882470000000  0.2633650000000  0.2517310000000 1.0  -0.06
Li     1 -0.2882470000000 -0.2633650000000  0.2517310000000 1.0  -0.06
Li     1 -0.3817450000000  0.3623700000000  0.1108140000000 1.0  -0.03
Li     1  0.3817450000000 -0.3623700000000  0.1108140000000 1.0  -0.03
Li     1 -0.1182550000000 -0.1376300000000 -0.1108140000000 1.0  -0.03
Li     1  0.1182550000000  0.1376300000000 -0.1108140000000 1.0  -0.03
Li     1  0.0000000000000  0.0000000000000  0.5338030000000 1.0  -0.00
Li     1 -0.5000000000000  0.5000000000000 -0.5338030000000 1.0  -0.00
O      2 -0.2123340000000  0.2119860000000 -0.0369110000000 1.0   0.08
O      2  0.2123340000000 -0.2119860000000 -0.0369110000000 1.0   0.08
O      2 -0.2876660000000 -0.2880140000000  0.0369110000000 1.0   0.08
O      2  0.2876660000000  0.2880140000000  0.0369110000000 1.0   0.08
O      2  0.0000000000000  0.0000000000000 -0.2784810000000 1.0   0.30
O      2 -0.5000000000000  0.5000000000000  0.2784810000000 1.0   0.30
S      3  0.5000000000000  0.0000000000000  0.4013600000000 1.0   0.59
S      3  0.0000000000000  0.5000000000000 -0.4013600000000 1.0   0.59
Fe     4  0.5000000000000  0.0000000000000 -0.0013780000000 1.0   3.77
Fe     4  0.0000000000000  0.5000000000000  0.0013780000000 1.0   3.77
END
