TITL LFSO-Li4Fe2S3O-201026-091831-f7f368 0.0595 185.706520 -3.87387088E+003 8.00000 8.07376 10 (P-1) n - 1
REM
REM Run started: Wed, 28 Oct 2020 03:14:57 +0000 in /scratch/scratch/uccabz1/launch_tmp/launcher_2020-10-27-22-57-22-497261
REM CASTEP 19.11| from code version Version unavailable
REM Functional Perdew Burke Ernzerhof Relativity Koelling-Harmon Dispersion off
REM Cut-off 340.0000 eV Grid scale 1.7500 Gmax 16.5316 1/A FBSC none
REM MP grid 4 2 3 Offset 0.000 0.000 0.000 No. kpts 12 Spacing 0.07
REM Total runtime: 16912.1 s
REM Overall efficiency: 87.2308 %
REM
REM
REM
REM compiler GCC version 4.9.2
REM options -cpp -iprefix /lustre/shared/ucl/apps/gcc/4.9.2/bin/../lib/gcc/x86_64-unknown-linux-gnu/4.9.2/ -mtune=corei7 -march=x86-64 -g -Og
REM COMMAND_LINE
REM seed -1766785632 844833978 1488741612 -2131193784 -1950657296 -1951041802 782446404 -2031109629 -1630752420 1821213465 -1150145780 327682594
REM
REM S 3|1.8|5|6|7|30:31:32(qc=5)
REM O 2|1.5|12|13|15|20:21(qc=5)
REM Li 1|1.3|8|9|10|10U:20(qc=5)
REM Fe 3|2.2|2.0|1.0|8|9|10|40:41:32(qc=5)
REM Fe d:4.0 
REM
CELL 1.54180    3.85299    7.88897    6.62816   99.41186  108.33012   96.54557
LATT -1
SFAC Li O  S  Fe 
Li     1 -0.1270730000000 -0.0660460000000 -0.2301740000000 1.0   0.01
Li     1  0.1270730000000  0.0660460000000  0.2301740000000 1.0   0.01
Li     1 -0.4343900000000  0.2900440000000 -0.0742640000000 1.0  -0.04
Li     1  0.4343900000000 -0.2900440000000  0.0742640000000 1.0  -0.04
O      2  0.0000000000000  0.5000000000000  0.0000000000000 1.0   0.18
S      3  0.2286520000000  0.2995200000000 -0.4573800000000 1.0   0.11
S      3 -0.2286520000000 -0.2995200000000  0.4573800000000 1.0   0.11
S      3  0.5000000000000  0.0000000000000  0.0000000000000 1.0   0.01
Fe     4 -0.1483220000000 -0.5183350000000 -0.3147500000000 1.0   3.82
Fe     4  0.1483220000000  0.5183350000000  0.3147500000000 1.0   3.82
END
