TITL LFSO-Li2Fe4S4O-201022-183626-84e004 -0.0203 470.868048 -1.09986104E+004 32.0325 32.2587 22 (R3) n - 1
REM
REM Run started: Fri, 23 Oct 2020 23:33:28 +0100 in /lustre/scratch/uccabz1/launch_tmp/launcher_2020-10-22-17-36-24-397130
REM CASTEP 20.1 from code version af48c487+ pr-geom-scf-spinfix Tue Jun 2 15:39:59 2020 +0100
REM Functional Perdew Burke Ernzerhof Relativity Koelling-Harmon Dispersion off
REM Cut-off 340.0000 eV Grid scale 1.7500 Gmax 16.5316 1/A FBSC none
REM MP grid 3 3 3 Offset 0.000 0.000 0.000 No. kpts 6 Spacing 0.07
REM Total runtime: 120434 s
REM Overall efficiency: 88.75 %
REM
REM
REM
REM compiler GCC version 4.9.2
REM options -cpp -iprefix /lustre/shared/ucl/apps/gcc/4.9.2/bin/../lib/gcc/x86_64-unknown-linux-gnu/4.9.2/ -mtune=corei7 -march=x86-64 -g -Og
REM COMMAND_LINE
REM seed -1908575152 86382859 1705617946 -1587509628 -1410867663 -96442742 588313941 -248783315 -1900972632 -309179203 -32809922 -156299069
REM
REM S 3|1.8|5|6|7|30:31:32(qc=5)
REM O 2|1.5|12|13|15|20:21(qc=5)
REM Li 1|1.3|8|9|10|10U:20(qc=5)
REM Fe 3|2.2|2.0|1.0|8|9|10|40:41:32(qc=5)
REM Fe d:4.0 
REM
CELL 1.54180   10.40779   10.40779   10.40779   42.76385   42.76385   42.76385
LATT -1
SFAC Li O  S  Fe 
Li     1 -0.3411410000000 -0.0923190000000  0.0662720000000 1.0  -0.06
Li     1  0.0662720000000 -0.3411410000000 -0.0923190000000 1.0  -0.06
Li     1 -0.0923190000000  0.0662720000000 -0.3411410000000 1.0  -0.06
Li     1  0.1045730000000  0.1045730000000  0.1045730000000 1.0  -0.08
O      2 -0.1592480000000 -0.1592480000000 -0.1592480000000 1.0   0.26
O      2  0.5129610000000  0.5129610000000  0.5129610000000 1.0   0.20
S      3  0.2357270000000 -0.0965480000000 -0.3468720000000 1.0   0.17
S      3 -0.3468720000000  0.2357270000000 -0.0965480000000 1.0   0.17
S      3 -0.0965480000000 -0.3468720000000  0.2357270000000 1.0   0.17
S      3  0.4294370000000  0.0795480000000 -0.2209770000000 1.0   0.24
S      3 -0.2209770000000  0.4294370000000  0.0795480000000 1.0   0.24
S      3  0.0795480000000 -0.2209770000000  0.4294370000000 1.0   0.24
S      3 -0.3148110000000 -0.3148110000000 -0.3148110000000 1.0   0.39
S      3  0.1900930000000  0.1900930000000  0.1900930000000 1.0   0.07
Fe     4 -0.5767760000000  0.3041260000000 -0.2000830000000 1.0   3.87
Fe     4 -0.2000830000000 -0.5767760000000  0.3041260000000 1.0   3.87
Fe     4  0.3041260000000 -0.2000830000000 -0.5767760000000 1.0   3.87
Fe     4 -0.2982500000000  0.3609140000000 -0.0237340000000 1.0   3.65
Fe     4 -0.0237340000000 -0.2982500000000  0.3609140000000 1.0   3.65
Fe     4  0.3609140000000 -0.0237340000000 -0.2982500000000 1.0   3.65
Fe     4 -0.0448260000000 -0.0448260000000 -0.0448260000000 1.0   3.58
Fe     4 -0.2260430000000 -0.2260430000000 -0.2260430000000 1.0   4.02
END
