TITL LFSO-Li6FeS3O-201027-141210-05e733 -0.0400 429.097356 -6.81596430E+003 -7.99541 8.36800 22 (Ama2) n - 1
REM
REM Run started: Tue, 27 Oct 2020 23:37:09 +0000 in /lustre/scratch/uccabz1/launch_tmp/launcher_2020-10-27-14-12-08-902393
REM CASTEP 20.1 from code version af48c487+ pr-geom-scf-spinfix Tue Jun 2 15:39:59 2020 +0100
REM Functional Perdew Burke Ernzerhof Relativity Koelling-Harmon Dispersion off
REM Cut-off 340.0000 eV Grid scale 1.7500 Gmax 16.5316 1/A FBSC none
REM MP grid 3 2 3 Offset 0.000 0.000 0.000 No. kpts 4 Spacing 0.07
REM Total runtime: 37249.4 s
REM Overall efficiency: 79.3077 %
REM
REM
REM
REM compiler GCC version 4.9.2
REM options -cpp -iprefix /lustre/shared/ucl/apps/gcc/4.9.2/bin/../lib/gcc/x86_64-unknown-linux-gnu/4.9.2/ -mtune=corei7 -march=x86-64 -g -Og
REM COMMAND_LINE
REM seed -877852768 -1078082189 2093492118 -253333983 1882634909 -1479630068 1098244886 -615205707 -1969925374 1408193330 1415729720 -485661374
REM
REM S 3|1.8|5|6|7|30:31:32(qc=5)
REM O 2|1.5|12|13|15|20:21(qc=5)
REM Li 1|1.3|8|9|10|10U:20(qc=5)
REM Fe 3|2.2|2.0|1.0|8|9|10|40:41:32(qc=5)
REM Fe d:4.0 
REM
CELL 1.54180    4.99807   12.45813    7.33042   90.00000  109.93252   90.00000
LATT -1
SFAC Li O  S  Fe 
Li     1 -0.4420020000000 -0.1394840000000 -0.1627170000000 1.0   0.06
Li     1  0.2792840000000  0.1394840000000 -0.1627170000000 1.0   0.06
Li     1  0.2792840000000  0.3605160000000 -0.1627170000000 1.0   0.06
Li     1 -0.4420020000000 -0.3605160000000 -0.1627170000000 1.0   0.06
Li     1  0.2184860000000  0.1015850000000  0.2455440000000 1.0   0.02
Li     1  0.0270580000000 -0.1015850000000  0.2455440000000 1.0   0.02
Li     1  0.0270580000000 -0.3984150000000  0.2455440000000 1.0   0.02
Li     1  0.2184860000000  0.3984150000000  0.2455440000000 1.0   0.02
Li     1 -0.3348810000000  0.3791100000000 -0.3098950000000 1.0   0.02
Li     1  0.0249860000000 -0.3791100000000 -0.3098950000000 1.0   0.02
Li     1  0.0249860000000 -0.1208900000000 -0.3098950000000 1.0   0.02
Li     1 -0.3348810000000  0.1208900000000 -0.3098950000000 1.0   0.02
O      2  0.2480170000000 -0.2500000000000 -0.2122120000000 1.0  -0.10
O      2 -0.4602300000000  0.2500000000000 -0.2122120000000 1.0  -0.10
S      3  0.0517240000000  0.0371920000000  0.4975550000000 1.0  -0.00
S      3  0.4458310000000 -0.0371920000000  0.4975550000000 1.0  -0.00
S      3  0.4458310000000 -0.4628080000000  0.4975550000000 1.0  -0.00
S      3  0.0517240000000  0.4628080000000  0.4975550000000 1.0  -0.00
S      3 -0.0206370000000 -0.0000000000000 -0.0412740000000 1.0  -0.12
S      3 -0.0206370000000 -0.5000000000000 -0.0412740000000 1.0  -0.12
Fe     4  0.1130650000000 -0.2500000000000  0.0058310000000 1.0  -3.96
Fe     4 -0.1072350000000  0.2500000000000  0.0058310000000 1.0  -3.96
END
