TITL LFSO-Li2Fe2S2O-201022-070641-5ffd7a -0.0556 100.302852 -3.16944609E+003 8.00000 8.10958 7 (R3m) n - 1
REM
REM Run started: Thu, 22 Oct 2020 08:30:23 +0100 in /lustre/scratch/uccabz1/launch_tmp/launcher_2020-10-22-06-06-39-365085
REM CASTEP 20.1 from code version af48c487+ pr-geom-scf-spinfix Tue Jun 2 15:39:59 2020 +0100
REM Functional Perdew Burke Ernzerhof Relativity Koelling-Harmon Dispersion off
REM Cut-off 340.0000 eV Grid scale 1.7500 Gmax 16.5316 1/A FBSC none
REM MP grid 5 5 2 Offset 0.000 0.000 0.000 No. kpts 15 Spacing 0.07
REM Total runtime: 5409.3 s
REM Overall efficiency: 85.5714 %
REM
REM
REM
REM compiler GCC version 4.9.2
REM options -cpp -iprefix /lustre/shared/ucl/apps/gcc/4.9.2/bin/../lib/gcc/x86_64-unknown-linux-gnu/4.9.2/ -mtune=corei7 -march=x86-64 -g -Og
REM COMMAND_LINE
REM seed -1436756263 -867431567 857549127 -541262286 -1682669584 -28768155 571047047 -1385893591 -663212478 573728291 189845538 -1812471485
REM
REM S 3|1.8|5|6|7|30:31:32(qc=5)
REM O 2|1.5|12|13|15|20:21(qc=5)
REM Li 1|1.3|8|9|10|10U:20(qc=5)
REM Fe 3|2.2|2.0|1.0|8|9|10|40:41:32(qc=5)
REM Fe d:4.0 
REM
CELL 1.54180    3.66625    3.66625    8.87282   78.07678   78.07678   60.00000
LATT -1
SFAC Li O  S  Fe 
Li     1 -0.3720620000000 -0.3720620000000  0.1161860000000 1.0   0.02
Li     1  0.3506740000000  0.3506740000000 -0.0520210000000 1.0  -0.05
O      2 -0.2980950000000 -0.2980950000000 -0.1057130000000 1.0   0.09
S      3  0.2521730000000  0.2521730000000  0.2434810000000 1.0   0.11
S      3  0.4697520000000  0.4697520000000 -0.4092560000000 1.0   0.13
Fe     4 -0.1357470000000 -0.1357470000000  0.4072400000000 1.0   3.82
Fe     4  0.0821020000000  0.0821020000000 -0.2463060000000 1.0   3.87
END
