TITL LFSO-Li5FeS2O2-201026-150430-c5f533 0.0217 155.154385 -3.34079038E+003 4.98889 5.04450 10 (R3m) n - 1
REM
REM Run started: Mon, 26 Oct 2020 17:39:04 +0000 in /lustre/scratch/uccabz1/launch_tmp/launcher_2020-10-26-15-04-28-634886
REM CASTEP 20.1 from code version af48c487+ pr-geom-scf-spinfix Tue Jun 2 15:39:59 2020 +0100
REM Functional Perdew Burke Ernzerhof Relativity Koelling-Harmon Dispersion off
REM Cut-off 340.0000 eV Grid scale 1.7500 Gmax 16.5316 1/A FBSC none
REM MP grid 4 4 2 Offset 0.000 0.000 0.000 No. kpts 10 Spacing 0.07
REM Total runtime: 9882.29 s
REM Overall efficiency: 78.0833 %
REM
REM
REM
REM compiler GCC version 4.9.2
REM options -cpp -iprefix /lustre/shared/ucl/apps/gcc/4.9.2/bin/../lib/gcc/x86_64-unknown-linux-gnu/4.9.2/ -mtune=corei7 -march=x86-64 -g -Og
REM COMMAND_LINE
REM seed -1357332757 -1864213676 -514868698 -558334230 1014386237 1113087723 350349310 -1208859816 -346859969 1334395952 437771342 1614708326
REM
REM S 3|1.8|5|6|7|30:31:32(qc=5)
REM O 2|1.5|12|13|15|20:21(qc=5)
REM Li 1|1.3|8|9|10|10U:20(qc=5)
REM Fe 3|2.2|2.0|1.0|8|9|10|40:41:32(qc=5)
REM Fe d:4.0 
REM
CELL 1.54180    4.72191    4.72191    8.48512   73.84440   73.84440   60.00000
LATT -1
SFAC Li O  S  Fe 
Li     1 -0.3738780000000 -0.3738780000000 -0.3913550000000 1.0  -0.01
Li     1  0.1391110000000 -0.3738780000000 -0.3913550000000 1.0  -0.01
Li     1 -0.3738780000000  0.1391110000000 -0.3913550000000 1.0  -0.01
Li     1  0.0600000000000  0.0600000000000 -0.1799990000000 1.0  -0.03
Li     1  0.3376990000000  0.3376990000000 -0.0130970000000 1.0  -0.03
O      2  0.4107000000000  0.4107000000000 -0.2320990000000 1.0   0.08
O      2 -0.1488740000000 -0.1488740000000  0.4466230000000 1.0   0.70
S      3 -0.3699100000000 -0.3699100000000  0.1097300000000 1.0   0.05
S      3  0.1542770000000  0.1542770000000  0.5371700000000 1.0   0.34
Fe     4 -0.0750670000000 -0.0750670000000  0.2252000000000 1.0   3.90
END
