TITL LFSO-Li3FeS2O-201025-053204-fa4e35 -0.0228 97.135594 -2.50811934E+003 3.00006 3.83537 7 (P-1) n - 1
REM
REM Run started: Sun, 25 Oct 2020 05:59:52 +0000 in /lustre/scratch/uccabz1/launch_tmp/launcher_2020-10-25-05-32-02-394253
REM CASTEP 20.1 from code version af48c487+ pr-geom-scf-spinfix Tue Jun 2 15:39:59 2020 +0100
REM Functional Perdew Burke Ernzerhof Relativity Koelling-Harmon Dispersion off
REM Cut-off 340.0000 eV Grid scale 1.7500 Gmax 16.5316 1/A FBSC none
REM MP grid 4 6 3 Offset 0.000 0.000 0.000 No. kpts 36 Spacing 0.07
REM Total runtime: 1940.69 s
REM Overall efficiency: 89.5 %
REM
REM
REM
REM compiler GCC version 4.9.2
REM options -cpp -iprefix /lustre/shared/ucl/apps/gcc/4.9.2/bin/../lib/gcc/x86_64-unknown-linux-gnu/4.9.2/ -mtune=corei7 -march=x86-64 -g -Og
REM COMMAND_LINE
REM seed 1626707538 1060687455 1440008194 208998503 1994857338 1752472763 -1531200094 2981836 -1745790155 -272142175 -175150651 402841412
REM
REM S 3|1.8|5|6|7|30:31:32(qc=5)
REM O 2|1.5|12|13|15|20:21(qc=5)
REM Li 1|1.3|8|9|10|10U:20(qc=5)
REM Fe 3|2.2|2.0|1.0|8|9|10|40:41:32(qc=5)
REM Fe d:4.0 
REM
CELL 1.54180    5.58014    4.04859    7.11401   72.09871   89.19484   42.33632
LATT -1
SFAC Li O  S  Fe 
Li     1  0.3295540000000 -0.1611980000000 -0.3203200000000 1.0  -0.01
Li     1 -0.3295540000000  0.1611980000000  0.3203200000000 1.0  -0.01
Li     1  0.0000000000000  0.0000000000000  0.0000000000000 1.0  -0.04
O      2  0.5000000000000 -0.5000000000000  0.0000000000000 1.0   0.03
S      3  0.1403570000000  0.2161750000000  0.2688250000000 1.0  -0.21
S      3 -0.1403570000000 -0.2161750000000 -0.2688250000000 1.0  -0.21
Fe     4  0.5000000000000  0.0000000000000  0.0000000000000 1.0   3.45
END
