TITL LFSO-Li4Fe3S3O2-201029-210120-dc2eab -0.0148 448.303112 -1.03462413E+004 24.0000 24.4420 24 (I222) n - 1
REM
REM Run started: Fri, 30 Oct 2020 01:20:54 +0000 in /scratch/scratch/uccabz1/launch_tmp/launcher_2020-10-29-21-01-19-255873
REM CASTEP 19.11| from code version Version unavailable
REM Functional Perdew Burke Ernzerhof Relativity Koelling-Harmon Dispersion off
REM Cut-off 340.0000 eV Grid scale 1.7500 Gmax 16.5316 1/A FBSC none
REM MP grid 3 2 2 Offset 0.000 0.000 0.000 No. kpts 5 Spacing 0.07
REM Total runtime: 17693.3 s
REM Overall efficiency: 76.2222 %
REM
REM
REM
REM compiler GCC version 4.9.2
REM options -cpp -iprefix /scratch/UCL/applications/gcc/4.9.2/bin/../lib/gcc/x86_64-unknown-linux-gnu/4.9.2/ -mtune=corei7 -march=x86-64 -g -O2
REM COMMAND_LINE
REM seed 1019926164 1701985224 1181007207 -1591366037 91360566 -19176046 -1035011099 -2095020412 87328419 1722316639 691842178 540976264
REM
REM S 3|1.8|5|6|7|30:31:32(qc=5)
REM O 2|1.5|12|13|15|20:21(qc=5)
REM Li 1|1.3|8|9|10|10U:20(qc=5)
REM Fe 3|2.2|2.0|1.0|8|9|10|40:41:32(qc=5)
REM Fe d:4.0 
REM
CELL 1.54180    7.19468    8.68175    8.68175   83.10544   65.52121   65.52121
LATT -1
SFAC Li O  S  Fe 
Li     1  0.1060500000000 -0.1934640000000  0.4405750000000 1.0  -0.05
Li     1  0.3531610000000  0.1934640000000 -0.4405750000000 1.0  -0.05
Li     1 -0.3531610000000  0.4405750000000 -0.1934640000000 1.0  -0.05
Li     1 -0.1060500000000 -0.4405750000000  0.1934640000000 1.0  -0.05
Li     1  0.4027010000000 -0.1007900000000 -0.2473470000000 1.0  -0.08
Li     1  0.0545650000000  0.1007900000000  0.2473470000000 1.0  -0.08
Li     1 -0.0545640000000 -0.2473470000000 -0.1007900000000 1.0  -0.08
Li     1 -0.4027010000000  0.2473470000000  0.1007900000000 1.0  -0.08
O      2  0.2522470000000 -0.1520560000000  0.2087750000000 1.0   0.17
O      2  0.3089670000000  0.1520560000000 -0.2087750000000 1.0   0.17
O      2 -0.3089670000000  0.2087750000000 -0.1520560000000 1.0   0.17
O      2 -0.2522470000000 -0.2087750000000  0.1520560000000 1.0   0.17
S      3 -0.1807780000000  0.4010010000000  0.0462930000000 1.0   0.13
S      3  0.2665150000000 -0.4010010000000 -0.0462930000000 1.0   0.13
S      3 -0.2665150000000  0.0462930000000  0.4010010000000 1.0   0.13
S      3  0.1807780000000 -0.0462930000000 -0.4010010000000 1.0   0.13
S      3  0.2413090000000  0.2586910000000  0.2586910000000 1.0   0.07
S      3 -0.2413090000000 -0.2586910000000 -0.2586910000000 1.0   0.07
Fe     4  0.2783820000000  0.3029660000000 -0.0381910000000 1.0   3.90
Fe     4 -0.4568430000000 -0.3029660000000  0.0381910000000 1.0   3.90
Fe     4  0.4568430000000 -0.0381910000000  0.3029660000000 1.0   3.90
Fe     4 -0.2783810000000  0.0381910000000 -0.3029660000000 1.0   3.90
Fe     4  0.0000000000000 -0.1749660000000  0.1749660000000 1.0   3.79
Fe     4  0.0000000000000  0.1749660000000 -0.1749660000000 1.0   3.79
END
