TITL LFSO-Li2Fe3S3O-201025-195215-6ad8e8 0.0112 367.946956 -8.67156450E+003 24.0000 24.1498 18 (P-1) n - 1
REM
REM Run started: Mon, 26 Oct 2020 11:12:29 +0000 in /lustre/scratch/uccabz1/launch_tmp/launcher_2020-10-25-19-52-13-583041
REM CASTEP 20.1 from code version af48c487+ pr-geom-scf-spinfix Tue Jun 2 15:39:59 2020 +0100
REM Functional Perdew Burke Ernzerhof Relativity Koelling-Harmon Dispersion off
REM Cut-off 340.0000 eV Grid scale 1.7500 Gmax 16.5316 1/A FBSC none
REM MP grid 3 3 2 Offset 0.000 0.000 0.000 No. kpts 9 Spacing 0.07
REM Total runtime: 56716.4 s
REM Overall efficiency: 79.3077 %
REM
REM
REM
REM compiler GCC version 4.9.2
REM options -cpp -iprefix /lustre/shared/ucl/apps/gcc/4.9.2/bin/../lib/gcc/x86_64-unknown-linux-gnu/4.9.2/ -mtune=corei7 -march=x86-64 -g -Og
REM COMMAND_LINE
REM seed -42030559 388202255 2106582143 -1146172484 -1391264476 -1088573547 466763020 1223407854 -1455820036 -1923868580 80534300 -941874730
REM
REM S 3|1.8|5|6|7|30:31:32(qc=5)
REM O 2|1.5|12|13|15|20:21(qc=5)
REM Li 1|1.3|8|9|10|10U:20(qc=5)
REM Fe 3|2.2|2.0|1.0|8|9|10|40:41:32(qc=5)
REM Fe d:4.0 
REM
CELL 1.54180    6.08460    6.82197    9.21884   80.65088   81.91039   98.60901
LATT -1
SFAC Li O  S  Fe 
Li     1 -0.2573410000000 -0.0428880000000  0.0076030000000 1.0  -0.01
Li     1  0.2573410000000  0.0428880000000 -0.0076030000000 1.0  -0.01
Li     1 -0.0746460000000 -0.0953360000000 -0.3693570000000 1.0  -0.04
Li     1  0.0746460000000  0.0953360000000  0.3693570000000 1.0  -0.04
O      2 -0.2426100000000  0.0508310000000 -0.5004000000000 1.0   0.19
O      2  0.2426100000000 -0.0508310000000  0.5004000000000 1.0   0.19
S      3  0.3906520000000 -0.1954600000000  0.1797050000000 1.0   0.11
S      3 -0.3906520000000  0.1954600000000 -0.1797050000000 1.0   0.11
S      3 -0.0138040000000  0.2301980000000  0.1121010000000 1.0   0.09
S      3  0.0138040000000 -0.2301980000000 -0.1121010000000 1.0   0.09
S      3 -0.1795370000000 -0.3761070000000  0.3714810000000 1.0   0.15
S      3  0.1795370000000  0.3761070000000 -0.3714810000000 1.0   0.15
Fe     4  0.1964050000000 -0.3228790000000  0.4500310000000 1.0   3.78
Fe     4 -0.1964050000000  0.3228790000000 -0.4500310000000 1.0   3.78
Fe     4  0.6012710000000 -0.0764140000000  0.3570530000000 1.0   3.88
Fe     4 -0.6012710000000  0.0764140000000 -0.3570530000000 1.0   3.88
Fe     4  0.0475280000000 -0.4150570000000  0.1348910000000 1.0   3.84
Fe     4 -0.0475280000000  0.4150570000000 -0.1348910000000 1.0   3.84
END
