TITL LFSO-Li6FeS3O-201027-135713-5fcda2 0.5421 429.166500 -6.82142896E+003 8.00000 8.20451 22 (Fdd2) n - 1
REM
REM Run started: Wed, 28 Oct 2020 07:50:18 +0000 in /lustre/scratch/uccabz1/launch_tmp/launcher_2020-10-27-13-57-12-056720
REM CASTEP 20.1 from code version af48c487+ pr-geom-scf-spinfix Tue Jun 2 15:39:59 2020 +0100
REM Functional Perdew Burke Ernzerhof Relativity Koelling-Harmon Dispersion off
REM Cut-off 340.0000 eV Grid scale 1.7500 Gmax 16.5316 1/A FBSC none
REM MP grid 3 3 4 Offset 0.000 0.000 0.000 No. kpts 12 Spacing 0.07
REM Total runtime: 86449.6 s
REM Overall efficiency: 68.9167 %
REM
REM
REM
REM compiler GCC version 4.9.2
REM options -cpp -iprefix /lustre/shared/ucl/apps/gcc/4.9.2/bin/../lib/gcc/x86_64-unknown-linux-gnu/4.9.2/ -mtune=corei7 -march=x86-64 -g -Og
REM COMMAND_LINE
REM seed -486833638 1638355087 -2133771774 -1334505062 -1511896854 -163213988 217017649 375806246 -803163428 529519204 -1807087947 -1512234479
REM
REM S 3|1.8|5|6|7|30:31:32(qc=5)
REM O 2|1.5|12|13|15|20:21(qc=5)
REM Li 1|1.3|8|9|10|10U:20(qc=5)
REM Fe 3|2.2|2.0|1.0|8|9|10|40:41:32(qc=5)
REM Fe d:4.0 
REM
CELL 1.54180   12.03870   12.03870   12.42206  150.56435  150.56435   37.12859
LATT -1
SFAC Li O  S  Fe 
Li     1 -0.1323240000000 -0.4670650000000  0.0554390000000 1.0   0.03
Li     1  0.1877630000000 -0.4774960000000  0.0554390000000 1.0   0.03
Li     1 -0.2170650000000 -0.3823240000000 -0.4445610000000 1.0   0.03
Li     1 -0.2274960000000 -0.0622370000000 -0.4445610000000 1.0   0.03
Li     1  0.1057660000000 -0.1186840000000  0.0612180000000 1.0   0.01
Li     1 -0.0445480000000  0.1799020000000  0.0612180000000 1.0   0.01
Li     1  0.1313160000000 -0.1442340000000  0.5612180000000 1.0   0.01
Li     1  0.4299020000000  0.7054520000000  0.5612180000000 1.0   0.01
Li     1 -0.1359260000000 -0.2318230000000  0.0778720000000 1.0  -0.03
Li     1  0.2137990000000  0.3096960000000  0.0778720000000 1.0  -0.03
Li     1  0.0181770000000  0.6140740000000  0.5778720000000 1.0  -0.03
Li     1 -0.4403040000000 -0.0362010000000  0.5778720000000 1.0  -0.03
O      2 -0.1238370000000 -0.1238370000000 -0.2476750000000 1.0   0.00
O      2  0.1261630000000 -0.3738370000000  0.2523250000000 1.0   0.00
S      3  0.4029050000000 -0.3735630000000  0.1809500000000 1.0   0.09
S      3 -0.2219550000000  0.5545130000000  0.1809500000000 1.0   0.09
S      3 -0.1235630000000  0.1529050000000 -0.3190500000000 1.0   0.09
S      3 -0.1954870000000 -0.4719550000000 -0.3190500000000 1.0   0.09
S      3  0.2383580000000  0.2383580000000  0.4767170000000 1.0   0.11
S      3  0.4883580000000 -0.0116420000000 -0.0232830000000 1.0   0.11
Fe     4 -0.2806610000000  0.2193390000000  0.4386780000000 1.0   3.70
Fe     4  0.4693390000000  0.4693390000000 -0.0613220000000 1.0   3.70
END
