TITL LFSO-Li5FeSO3-201026-173110-6a42e2 0.0221 158.905692 -3.47785656E+003 5.00000 5.04940 10 (R3) n - 1
REM
REM Run started: Mon, 26 Oct 2020 18:08:47 +0000 in /lustre/scratch/uccabz1/launch_tmp/launcher_2020-10-26-17-31-08-196433
REM CASTEP 20.1 from code version af48c487+ pr-geom-scf-spinfix Tue Jun 2 15:39:59 2020 +0100
REM Functional Perdew Burke Ernzerhof Relativity Koelling-Harmon Dispersion off
REM Cut-off 340.0000 eV Grid scale 1.7500 Gmax 16.5316 1/A FBSC none
REM MP grid 3 3 3 Offset 0.000 0.000 0.000 No. kpts 6 Spacing 0.07
REM Total runtime: 2570.96 s
REM Overall efficiency: 92.6667 %
REM
REM
REM
REM compiler GCC version 4.9.2
REM options -cpp -iprefix /lustre/shared/ucl/apps/gcc/4.9.2/bin/../lib/gcc/x86_64-unknown-linux-gnu/4.9.2/ -mtune=corei7 -march=x86-64 -g -Og
REM COMMAND_LINE
REM seed 1278801256 1580072744 1356713002 -407268294 1828268379 1721211849 553074446 -296522545 1698003523 -192263244 169970016 1056212234
REM
REM S 3|1.8|5|6|7|30:31:32(qc=5)
REM O 2|1.5|12|13|15|20:21(qc=5)
REM Li 1|1.3|8|9|10|10U:20(qc=5)
REM Fe 3|2.2|2.0|1.0|8|9|10|40:41:32(qc=5)
REM Fe d:4.0 
REM
CELL 1.54180    6.01883    6.01883    6.14250   60.66380   60.66380   60.00000
LATT -1
SFAC Li O  S  Fe 
Li     1 -0.2381220000000 -0.1195490000000 -0.0343990000000 1.0  -0.01
Li     1 -0.1195490000000  0.3920710000000 -0.0343990000000 1.0  -0.01
Li     1  0.3920710000000 -0.2381220000000 -0.0343990000000 1.0  -0.01
Li     1  0.1141090000000  0.1141090000000  0.6576720000000 1.0   0.01
Li     1 -0.0421300000000 -0.0421300000000  0.1263890000000 1.0   0.06
O      2 -0.2776330000000  0.2378690000000 -0.1115600000000 1.0   0.24
O      2  0.2378690000000  0.1513250000000 -0.1115600000000 1.0   0.24
O      2  0.1513250000000 -0.2776330000000 -0.1115600000000 1.0   0.24
S      3 -0.4388190000000 -0.4388190000000  0.3164590000000 1.0   0.18
Fe     4  0.4066490000000  0.4066490000000 -0.2199460000000 1.0   4.07
END
