TITL LFSO-Li5FeSO3-201027-022716-02345a -0.0097 309.598802 -6.95012175E+003 7.41936 7.96266 20 (P222) n - 1
REM
REM Run started: Tue, 27 Oct 2020 10:16:40 +0000 in /lustre/scratch/uccabz1/launch_tmp/launcher_2020-10-27-02-27-14-967648
REM CASTEP 20.1 from code version af48c487+ pr-geom-scf-spinfix Tue Jun 2 15:39:59 2020 +0100
REM Functional Perdew Burke Ernzerhof Relativity Koelling-Harmon Dispersion off
REM Cut-off 340.0000 eV Grid scale 1.7500 Gmax 16.5316 1/A FBSC none
REM MP grid 4 3 2 Offset 0.000 0.000 0.000 No. kpts 4 Spacing 0.07
REM Total runtime: 4261.35 s
REM Overall efficiency: 77.2857 %
REM
REM
REM
REM compiler GCC version 4.9.2
REM options -cpp -iprefix /lustre/shared/ucl/apps/gcc/4.9.2/bin/../lib/gcc/x86_64-unknown-linux-gnu/4.9.2/ -mtune=corei7 -march=x86-64 -g -Og
REM COMMAND_LINE
REM seed -1912494973 -207594229 2008454706 -682168872 -575083878 -1082976140 793574387 -1532641517 159555579 -1320775376 1445247997 1541795170
REM
REM S 3|1.8|5|6|7|30:31:32(qc=5)
REM O 2|1.5|12|13|15|20:21(qc=5)
REM Li 1|1.3|8|9|10|10U:20(qc=5)
REM Fe 3|2.2|2.0|1.0|8|9|10|40:41:32(qc=5)
REM Fe d:4.0 
REM
CELL 1.54180    4.76364    6.06968   10.70765   90.00000   90.00000   90.00000
LATT -1
SFAC Li O  S  Fe 
Li     1  0.2406030000000  0.4501950000000 -0.1561310000000 1.0  -0.01
Li     1 -0.2406030000000 -0.4501950000000 -0.1561310000000 1.0  -0.01
Li     1  0.2406030000000 -0.4501950000000  0.1561310000000 1.0  -0.01
Li     1 -0.2406030000000  0.4501950000000  0.1561310000000 1.0  -0.01
Li     1 -0.3991690000000 -0.2981160000000 -0.3786460000000 1.0  -0.04
Li     1  0.3991690000000  0.2981160000000 -0.3786460000000 1.0  -0.04
Li     1 -0.3991690000000  0.2981160000000  0.3786460000000 1.0  -0.04
Li     1  0.3991690000000 -0.2981160000000  0.3786460000000 1.0  -0.04
Li     1  0.0000000000000  0.0000000000000 -0.1389340000000 1.0  -0.03
Li     1  0.0000000000000  0.0000000000000  0.1389340000000 1.0  -0.03
O      2  0.1131620000000  0.2353710000000 -0.2648480000000 1.0   0.08
O      2 -0.1131620000000 -0.2353710000000 -0.2648480000000 1.0   0.08
O      2  0.1131620000000 -0.2353710000000  0.2648480000000 1.0   0.08
O      2 -0.1131620000000  0.2353710000000  0.2648480000000 1.0   0.08
O      2 -0.3385270000000  0.5000000000000  0.5000000000000 1.0  -0.00
O      2  0.3385270000000  0.5000000000000  0.5000000000000 1.0  -0.00
S      3 -0.5000000000000 -0.2585720000000  0.0000000000000 1.0   0.17
S      3 -0.5000000000000  0.2585720000000  0.0000000000000 1.0   0.17
Fe     4  0.0000000000000  0.0000000000000  0.3655510000000 1.0   3.50
Fe     4  0.0000000000000  0.0000000000000 -0.3655510000000 1.0   3.50
END
