TITL LFSO-Li2Fe2S2O-201022-030440-4cde7f -0.1818 385.178655 -6.33754355E+003 15.9333 16.5205 14 (R3) n - 1
REM
REM Run started: Thu, 22 Oct 2020 06:40:57 +0100 in /scratch/scratch/uccabz1/launch_tmp/launcher_2020-10-22-02-04-38-418946
REM CASTEP 19.11| from code version Version unavailable
REM Functional Perdew Burke Ernzerhof Relativity Koelling-Harmon Dispersion off
REM Cut-off 340.0000 eV Grid scale 1.7500 Gmax 16.5316 1/A FBSC none
REM MP grid 3 3 3 Offset 0.000 0.000 0.000 No. kpts 6 Spacing 0.07
REM Total runtime: 21481.1 s
REM Overall efficiency: 65.4167 %
REM
REM
REM
REM compiler GCC version 4.9.2
REM options -cpp -iprefix /scratch/UCL/applications/gcc/4.9.2/bin/../lib/gcc/x86_64-unknown-linux-gnu/4.9.2/ -mtune=corei7 -march=x86-64 -g -O2
REM COMMAND_LINE
REM seed 1268078716 1871490850 1813526768 1878827578 -1039861123 -1564879438 -1716339883 -1001322779 -1448367214 350883992 -1890473704 1337380739
REM
REM S 3|1.8|5|6|7|30:31:32(qc=5)
REM O 2|1.5|12|13|15|20:21(qc=5)
REM Li 1|1.3|8|9|10|10U:20(qc=5)
REM Fe 3|2.2|2.0|1.0|8|9|10|40:41:32(qc=5)
REM Fe d:4.0 
REM
CELL 1.54180   10.65735   10.65735   10.65735   36.59478   36.59478   36.59478
LATT -1
SFAC Li O  S  Fe 
Li     1  0.1783820000000 -0.5817130000000 -0.0253580000000 1.0  -0.01
Li     1 -0.5817130000000 -0.0253580000000  0.1783820000000 1.0  -0.01
Li     1 -0.0253580000000  0.1783820000000 -0.5817130000000 1.0  -0.01
Li     1  0.2815200000000  0.2815200000000  0.2815200000000 1.0  -0.01
O      2  0.0476170000000  0.0476170000000  0.0476170000000 1.0   0.19
O      2  0.2263900000000  0.2263900000000  0.2263900000000 1.0   0.03
S      3  0.1131520000000 -0.1963320000000  0.5098400000000 1.0   0.17
S      3 -0.1963320000000  0.5098400000000  0.1131520000000 1.0   0.17
S      3  0.5098400000000  0.1131520000000 -0.1963320000000 1.0   0.17
S      3 -0.3095110000000 -0.3095110000000 -0.3095110000000 1.0   0.01
Fe     4 -0.1798360000000  0.3605020000000 -0.0044830000000 1.0   3.87
Fe     4  0.3605020000000 -0.0044830000000 -0.1798360000000 1.0   3.87
Fe     4 -0.0044830000000 -0.1798360000000  0.3605020000000 1.0   3.87
Fe     4 -0.5183080000000 -0.5183080000000 -0.5183080000000 1.0   3.64
END
