TITL LFSO-Li3FeS2O-201025-031702-53ae3a 0.0857 246.118467 -5.01442683E+003 8.04232 8.30483 14 (Cc) n - 1
REM
REM Run started: Sun, 25 Oct 2020 05:44:00 +0000 in /scratch/scratch/uccabz1/launch_tmp/launcher_2020-10-25-03-17-01-240766
REM CASTEP 19.11| from code version Version unavailable
REM Functional Perdew Burke Ernzerhof Relativity Koelling-Harmon Dispersion off
REM Cut-off 340.0000 eV Grid scale 1.7500 Gmax 16.5316 1/A FBSC none
REM MP grid 3 3 3 Offset 0.000 0.000 0.000 No. kpts 10 Spacing 0.07
REM Total runtime: 9682.25 s
REM Overall efficiency: 83.9167 %
REM
REM
REM
REM compiler GCC version 4.9.2
REM options -cpp -iprefix /scratch/UCL/applications/gcc/4.9.2/bin/../lib/gcc/x86_64-unknown-linux-gnu/4.9.2/ -mtune=corei7 -march=x86-64 -g -O2
REM COMMAND_LINE
REM seed 847969159 -147239098 -1041893134 -933374785 858368174 -1190642016 1603513871 -1900999648 1370586134 630187759 1241156383 1326193537
REM
REM S 3|1.8|5|6|7|30:31:32(qc=5)
REM O 2|1.5|12|13|15|20:21(qc=5)
REM Li 1|1.3|8|9|10|10U:20(qc=5)
REM Fe 3|2.2|2.0|1.0|8|9|10|40:41:32(qc=5)
REM Fe d:4.0 
REM
CELL 1.54180    6.81875    6.31210    7.76697  121.00095  116.03745   90.00000
LATT -1
SFAC Li O  S  Fe 
Li     1 -0.6226680000000  0.2995440000000 -0.1793440000000 1.0   0.01
Li     1  0.4433240000000 -0.2004560000000 -0.1793440000000 1.0   0.01
Li     1 -0.0609570000000  0.0988250000000 -0.0747330000000 1.0   0.02
Li     1 -0.0137760000000 -0.4011750000000 -0.0747330000000 1.0   0.02
Li     1  0.1002270000000 -0.2003020000000  0.4065640000000 1.0  -0.02
Li     1  0.3063380000000  0.2996980000000  0.4065640000000 1.0  -0.02
O      2  0.4065300000000 -0.0388120000000 -0.3360850000000 1.0   0.19
O      2 -0.7426150000000 -0.5388120000000 -0.3360850000000 1.0   0.19
S      3 -0.1132280000000 -0.0426210000000  0.1390660000000 1.0   0.12
S      3  0.2522940000000  0.4573790000000  0.1390660000000 1.0   0.12
S      3 -0.3187090000000  0.2220530000000  0.5573430000000 1.0   0.02
S      3 -0.1239480000000 -0.2779470000000  0.5573430000000 1.0   0.02
Fe     4 -0.4641420000000 -0.1756440000000 -0.5202920000000 1.0   3.69
Fe     4 -0.0561490000000  0.3243560000000 -0.5202920000000 1.0   3.69
END
