TITL LFSO-Li4Fe3S3O2-201029-155410-c64199 -0.0254 666.921841 -1.03447124E+004 23.6028 24.1288 24 (Cmm2) n - 1
REM
REM Run started: Fri, 30 Oct 2020 17:11:53 +0000 in /lustre/scratch/uccabz1/launch_tmp/launcher_2020-10-29-15-54-07-843665
REM CASTEP 20.1 from code version af48c487+ pr-geom-scf-spinfix Tue Jun 2 15:39:59 2020 +0100
REM Functional Perdew Burke Ernzerhof Relativity Koelling-Harmon Dispersion off
REM Cut-off 340.0000 eV Grid scale 1.7500 Gmax 16.5316 1/A FBSC none
REM MP grid 5 2 2 Offset 0.000 0.000 0.000 No. kpts 6 Spacing 0.07
REM Total runtime: 100891 s
REM Overall efficiency: 92.3077 %
REM
REM
REM
REM compiler GCC version 4.9.2
REM options -cpp -iprefix /lustre/shared/ucl/apps/gcc/4.9.2/bin/../lib/gcc/x86_64-unknown-linux-gnu/4.9.2/ -mtune=corei7 -march=x86-64 -g -Og
REM COMMAND_LINE
REM seed -1140854088 -1112380462 2008352299 171123114 -1500487483 -37708683 -820989376 1691612958 -181564032 -143743131 1476522492 1879304595
REM
REM S 3|1.8|5|6|7|30:31:32(qc=5)
REM O 2|1.5|12|13|15|20:21(qc=5)
REM Li 1|1.3|8|9|10|10U:20(qc=5)
REM Fe 3|2.2|2.0|1.0|8|9|10|40:41:32(qc=5)
REM Fe d:4.0 
REM
CELL 1.54180    3.37518   14.08083   14.08083   85.27537   90.00000   90.00000
LATT -1
SFAC Li O  S  Fe 
Li     1 -0.1406950000000 -0.2397660000000 -0.0854990000000 1.0  -0.04
Li     1 -0.1406950000000  0.2397660000000  0.0854990000000 1.0  -0.04
Li     1 -0.1406950000000  0.0854990000000  0.2397660000000 1.0  -0.04
Li     1 -0.1406950000000 -0.0854990000000 -0.2397660000000 1.0  -0.04
Li     1 -0.0308930000000 -0.0543760000000  0.3429390000000 1.0  -0.02
Li     1 -0.0308930000000  0.0543760000000 -0.3429390000000 1.0  -0.02
Li     1 -0.0308930000000 -0.3429390000000  0.0543760000000 1.0  -0.02
Li     1 -0.0308930000000  0.3429390000000 -0.0543760000000 1.0  -0.02
O      2  0.3715540000000  0.3061490000000  0.0359900000000 1.0   0.14
O      2  0.3715540000000 -0.3061490000000 -0.0359900000000 1.0   0.14
O      2  0.3715540000000 -0.0359900000000 -0.3061490000000 1.0   0.14
O      2  0.3715540000000  0.0359900000000  0.3061490000000 1.0   0.14
S      3 -0.1133820000000  0.5044070000000  0.1302840000000 1.0   0.14
S      3 -0.1133820000000 -0.5044070000000 -0.1302840000000 1.0   0.14
S      3 -0.1133820000000 -0.1302840000000 -0.5044070000000 1.0   0.14
S      3 -0.1133820000000  0.1302840000000  0.5044070000000 1.0   0.14
S      3 -0.1542780000000  0.2544130000000  0.2544130000000 1.0   0.04
S      3 -0.1542780000000 -0.2544130000000 -0.2544130000000 1.0   0.04
Fe     4  0.3614330000000  0.3691960000000  0.1621990000000 1.0   3.79
Fe     4  0.3614330000000 -0.3691960000000 -0.1621990000000 1.0   3.79
Fe     4  0.3614330000000 -0.1621990000000 -0.3691960000000 1.0   3.79
Fe     4  0.3614330000000  0.1621990000000  0.3691960000000 1.0   3.79
Fe     4  0.4062010000000 -0.5000000000000  0.0000000000000 1.0   3.74
Fe     4  0.4062010000000  0.0000000000000  0.5000000000000 1.0   3.74
END
