TITL LFSO-Li2Fe3S2O2-201022-101644-4703dd -0.2559 329.870176 -8.93892278E+003 24.0000 24.1590 18 (P2) n - 1
REM
REM Run started: Thu, 22 Oct 2020 19:28:26 +0100 in /lustre/scratch/uccabz1/launch_tmp/launcher_2020-10-22-17-18-09-785810
REM CASTEP 20.1 from code version af48c487+ pr-geom-scf-spinfix Tue Jun 2 15:39:59 2020 +0100
REM Functional Perdew Burke Ernzerhof Relativity Koelling-Harmon Dispersion off
REM Cut-off 340.0000 eV Grid scale 1.7500 Gmax 16.5316 1/A FBSC none
REM MP grid 3 3 2 Offset 0.000 0.000 0.000 No. kpts 6 Spacing 0.07
REM Total runtime: 21098.7 s
REM Overall efficiency: 97.125 %
REM
REM
REM
REM compiler GCC version 4.9.2
REM options -cpp -iprefix /lustre/shared/ucl/apps/gcc/4.9.2/bin/../lib/gcc/x86_64-unknown-linux-gnu/4.9.2/ -mtune=corei7 -march=x86-64 -g -Og
REM COMMAND_LINE
REM seed 1640136824 2084429908 1821345841 1998612379 172121065 -1071223801 223422932 443743002 -1266951230 -1049753701 2017065301 1102479303
REM
REM S 3|1.8|5|6|7|30:31:32(qc=5)
REM O 2|1.5|12|13|15|20:21(qc=5)
REM Li 1|1.3|8|9|10|10U:20(qc=5)
REM Fe 3|2.2|2.0|1.0|8|9|10|40:41:32(qc=5)
REM Fe d:4.0 
REM
CELL 1.54180    6.30292    5.63598    9.45214   90.00000   79.24386   90.00000
LATT -1
SFAC Li O  S  Fe 
Li     1 -0.3218790000000 -0.0784740000000 -0.4095400000000 1.0  -0.03
Li     1  0.3218790000000 -0.0784740000000  0.4095400000000 1.0  -0.03
Li     1  0.1026470000000  0.5500260000000 -0.3095830000000 1.0  -0.01
Li     1 -0.1026470000000  0.5500260000000  0.3095830000000 1.0  -0.01
O      2  0.1557130000000 -0.2672270000000  0.3025520000000 1.0   0.18
O      2 -0.1557130000000 -0.2672270000000 -0.3025520000000 1.0   0.18
O      2 -0.3039640000000  0.1983660000000 -0.1054390000000 1.0   0.17
O      2  0.3039640000000  0.1983660000000  0.1054390000000 1.0   0.17
S      3 -0.2708770000000  0.1605880000000  0.3559990000000 1.0   0.10
S      3  0.2708770000000  0.1605880000000 -0.3559990000000 1.0   0.10
S      3 -0.2922450000000 -0.3210270000000  0.1120360000000 1.0   0.14
S      3  0.2922450000000 -0.3210270000000 -0.1120360000000 1.0   0.14
Fe     4 -0.3222300000000 -0.4444450000000 -0.1363570000000 1.0   3.82
Fe     4  0.3222300000000 -0.4444450000000  0.1363570000000 1.0   3.82
Fe     4 -0.3587500000000  0.1013220000000  0.1133970000000 1.0   3.83
Fe     4  0.3587500000000  0.1013220000000 -0.1133970000000 1.0   3.83
Fe     4  0.0592550000000  0.0266530000000  0.2231080000000 1.0   3.80
Fe     4 -0.0592550000000  0.0266530000000 -0.2231080000000 1.0   3.80
END
