TITL LFSO-Li2Fe4S4O-201023-024609-d7cb9a 0.0472 236.621108 -5.49706137E+003 15.2848 15.5728 11 (Imm2) n - 1
REM
REM Run started: Fri, 23 Oct 2020 13:00:25 +0100 in /lustre/scratch/uccabz1/launch_tmp/launcher_2020-10-23-01-46-08-080779
REM CASTEP 20.1 from code version af48c487+ pr-geom-scf-spinfix Tue Jun 2 15:39:59 2020 +0100
REM Functional Perdew Burke Ernzerhof Relativity Koelling-Harmon Dispersion off
REM Cut-off 340.0000 eV Grid scale 1.7500 Gmax 16.5316 1/A FBSC none
REM MP grid 4 3 3 Offset 0.000 0.000 0.000 No. kpts 18 Spacing 0.07
REM Total runtime: 44504.5 s
REM Overall efficiency: 96 %
REM
REM
REM
REM compiler GCC version 4.9.2
REM options -cpp -iprefix /lustre/shared/ucl/apps/gcc/4.9.2/bin/../lib/gcc/x86_64-unknown-linux-gnu/4.9.2/ -mtune=corei7 -march=x86-64 -g -Og
REM COMMAND_LINE
REM seed -187181706 -146924460 -1553870279 1863306483 -1668986131 -1254043762 1430261285 -671796950 -855860015 -1208469063 -1066794641 -1277407622
REM
REM S 3|1.8|5|6|7|30:31:32(qc=5)
REM O 2|1.5|12|13|15|20:21(qc=5)
REM Li 1|1.3|8|9|10|10U:20(qc=5)
REM Fe 3|2.2|2.0|1.0|8|9|10|40:41:32(qc=5)
REM Fe d:4.0 
REM
CELL 1.54180    7.40607    7.40607    7.40607   75.03990  125.21655  132.95925
LATT -1
SFAC Li O  S  Fe 
Li     1  0.0512530000000 -0.3279540000000 -0.2767020000000 1.0  -0.06
Li     1  0.0512530000000  0.3279540000000  0.3792070000000 1.0  -0.06
O      2 -0.1090160000000 -0.0000000000000 -0.1090160000000 1.0   0.17
S      3  0.5129160000000  0.0414420000000  0.0665750000000 1.0   0.06
S      3  0.0251330000000 -0.0414420000000  0.4714750000000 1.0   0.06
S      3  0.0251330000000 -0.4463420000000  0.0665750000000 1.0   0.06
S      3  0.5129160000000  0.4463420000000  0.4714750000000 1.0   0.06
Fe     4 -0.2994340000000 -0.3700670000000 -0.1635810000000 1.0   3.75
Fe     4  0.2064860000000  0.3700670000000  0.0706330000000 1.0   3.75
Fe     4  0.2064860000000  0.1358530000000 -0.1635810000000 1.0   3.75
Fe     4 -0.2994340000000 -0.1358530000000  0.0706330000000 1.0   3.75
END
