TITL LFSO-Li2FeSO-201024-184358-00d0b5 -0.0502 272.628148 -6.00855292E+003 10.0004 10.6169 15 (C2) n - 1
REM
REM Run started: Sat, 24 Oct 2020 22:53:15 +0100 in /scratch/scratch/uccabz1/launch_tmp/launcher_2020-10-24-17-43-55-927224
REM CASTEP 19.11| from code version Version unavailable
REM Functional Perdew Burke Ernzerhof Relativity Koelling-Harmon Dispersion off
REM Cut-off 340.0000 eV Grid scale 1.7500 Gmax 16.5316 1/A FBSC none
REM MP grid 4 3 3 Offset 0.000 0.000 0.000 No. kpts 12 Spacing 0.07
REM Total runtime: 16864.4 s
REM Overall efficiency: 73.9167 %
REM
REM
REM
REM compiler GCC version 4.9.2
REM options -cpp -iprefix /scratch/UCL/applications/gcc/4.9.2/bin/../lib/gcc/x86_64-unknown-linux-gnu/4.9.2/ -mtune=corei7 -march=x86-64 -g -O2
REM COMMAND_LINE
REM seed -1981950342 1709473208 -1878538993 1480749099 -2095386455 2009023807 -98536963 -869630922 1073864878 584290477 -169740502 -34061618
REM
REM S 3|1.8|5|6|7|30:31:32(qc=5)
REM O 2|1.5|12|13|15|20:21(qc=5)
REM Li 1|1.3|8|9|10|10U:20(qc=5)
REM Fe 3|2.2|2.0|1.0|8|9|10|40:41:32(qc=5)
REM Fe d:4.0 
REM
CELL 1.54180    6.43755    9.54932    9.54932  120.96221  114.46860  114.46860
LATT -1
SFAC Li O  S  Fe 
Li     1 -0.5251660000000 -0.2943490000000 -0.3701670000000 1.0  -0.06
Li     1  0.5251660000000  0.3701670000000  0.2943490000000 1.0  -0.06
Li     1 -0.0752910000000  0.0784240000000  0.1505650000000 1.0  -0.02
Li     1  0.0752910000000 -0.1505650000000 -0.0784240000000 1.0  -0.02
Li     1 -0.1363830000000  0.1653990000000 -0.0996070000000 1.0  -0.07
Li     1  0.1363830000000  0.0996070000000 -0.1653990000000 1.0  -0.07
O      2 -0.3894800000000 -0.0385990000000  0.5468720000000 1.0   0.09
O      2  0.3894800000000 -0.5468720000000  0.0385990000000 1.0   0.09
O      2  0.0000000000000  0.0347890000000 -0.0347890000000 1.0   0.00
S      3  0.7459860000000  0.2637370000000  0.1559820000000 1.0   0.01
S      3 -0.7459860000000 -0.1559820000000 -0.2637370000000 1.0   0.01
S      3 -0.5000000000000  0.3847450000000 -0.3847450000000 1.0  -0.05
Fe     4 -0.3703390000000  0.1831220000000  0.5906330000000 1.0   3.43
Fe     4  0.3703390000000 -0.5906330000000 -0.1831220000000 1.0   3.43
Fe     4  0.5000000000000 -0.2783670000000  0.2783670000000 1.0   3.28
END
