TITL LFSO-Li2Fe4S3O2-201026-183053-6dc94b 0.4226 441.891888 -1.12690195E+004 31.0810 31.7698 22 (Iba2) n - 1
REM
REM Run started: Wed, 28 Oct 2020 09:03:02 +0000 in /scratch/scratch/uccabz1/launch_tmp/launcher_2020-10-28-05-22-55-816994
REM CASTEP 19.11| from code version Version unavailable
REM Functional Perdew Burke Ernzerhof Relativity Koelling-Harmon Dispersion off
REM Cut-off 340.0000 eV Grid scale 1.7500 Gmax 16.5316 1/A FBSC none
REM MP grid 3 3 2 Offset 0.000 0.000 0.000 No. kpts 9 Spacing 0.07
REM Total runtime: 131565 s
REM Overall efficiency: 92.1667 %
REM
REM
REM
REM compiler GCC version 4.9.2
REM options -cpp -iprefix /scratch/UCL/applications/gcc/4.9.2/bin/../lib/gcc/x86_64-unknown-linux-gnu/4.9.2/ -mtune=corei7 -march=x86-64 -g -O2
REM COMMAND_LINE
REM seed -2041999148 417677485 281997939 562749976 1018345913 -323978328 -437444159 1222490735 359453645 -1281169482 304246832 1673685522
REM
REM S 3|1.8|5|6|7|30:31:32(qc=5)
REM O 2|1.5|12|13|15|20:21(qc=5)
REM Li 1|1.3|8|9|10|10U:20(qc=5)
REM Fe 3|2.2|2.0|1.0|8|9|10|40:41:32(qc=5)
REM Fe d:4.0 
REM
CELL 1.54180   10.20476   10.20476   10.20476   59.32403  134.65332  143.83946
LATT -1
SFAC Li O  S  Fe 
Li     1  0.4980600000000 -0.1520580000000  0.1089980000000 1.0  -0.02
Li     1 -0.2610560000000  0.3890620000000 -0.1089980000000 1.0  -0.02
Li     1  0.2389440000000  0.3479420000000  0.3498820000000 1.0  -0.02
Li     1 -0.0019400000000 -0.1109380000000 -0.3498820000000 1.0  -0.02
O      2 -0.4151330000000 -0.1803450000000 -0.1119360000000 1.0   0.15
O      2 -0.0684090000000 -0.3031970000000  0.1119360000000 1.0   0.15
O      2  0.4315910000000  0.3196550000000  0.2347880000000 1.0   0.15
O      2  0.0848670000000  0.1968030000000 -0.2347880000000 1.0   0.15
S      3  0.3398460000000  0.1499200000000 -0.4076390000000 1.0   0.11
S      3  0.5575590000000 -0.2525160000000  0.4076390000000 1.0   0.11
S      3  0.0575590000000 -0.3500800000000 -0.1899250000000 1.0   0.11
S      3 -0.1601540000000  0.2474840000000  0.1899250000000 1.0   0.11
S      3  0.0213650000000 -0.4786350000000 -0.5000000000000 1.0   0.05
S      3 -0.4786350000000  0.0213650000000 -0.5000000000000 1.0   0.05
Fe     4  0.1814840000000 -0.3544300000000  0.3076700000000 1.0   3.82
Fe     4 -0.6621000000000 -0.1261860000000 -0.3076700000000 1.0   3.82
Fe     4 -0.1621000000000  0.1455700000000  0.4640870000000 1.0   3.82
Fe     4 -0.3185160000000 -0.6261860000000 -0.4640870000000 1.0   3.82
Fe     4  0.1885080000000  0.0074190000000  0.1837950000000 1.0   3.69
Fe     4 -0.1763760000000  0.0047130000000 -0.1837950000000 1.0   3.69
Fe     4  0.3236240000000 -0.4925810000000 -0.1810890000000 1.0   3.69
Fe     4 -0.3114920000000  0.5047130000000  0.1810890000000 1.0   3.69
END
