TITL LFSO-Li2Fe2S2O-201023-203452-4ceb4e -0.1873 486.006336 -9.50858867E+003 24.0000 24.2622 21 (P3) n - 1
REM
REM Run started: Sat, 24 Oct 2020 02:44:11 +0100 in /lustre/scratch/uccabz1/launch_tmp/launcher_2020-10-23-19-34-51-022589
REM CASTEP 20.1 from code version af48c487+ pr-geom-scf-spinfix Tue Jun 2 15:39:59 2020 +0100
REM Functional Perdew Burke Ernzerhof Relativity Koelling-Harmon Dispersion off
REM Cut-off 340.0000 eV Grid scale 1.7500 Gmax 16.5316 1/A FBSC none
REM MP grid 3 3 2 Offset 0.000 0.000 0.000 No. kpts 5 Spacing 0.07
REM Total runtime: 24775.7 s
REM Overall efficiency: 73.5 %
REM
REM
REM
REM compiler GCC version 4.9.2
REM options -cpp -iprefix /lustre/shared/ucl/apps/gcc/4.9.2/bin/../lib/gcc/x86_64-unknown-linux-gnu/4.9.2/ -mtune=corei7 -march=x86-64 -g -Og
REM COMMAND_LINE
REM seed 112058178 1987084873 362180500 -1264556522 1776498860 -1220963990 -1100457062 1250114778 -2074547908 1627134203 879528745 -1340044660
REM
REM S 3|1.8|5|6|7|30:31:32(qc=5)
REM O 2|1.5|12|13|15|20:21(qc=5)
REM Li 1|1.3|8|9|10|10U:20(qc=5)
REM Fe 3|2.2|2.0|1.0|8|9|10|40:41:32(qc=5)
REM Fe d:4.0 
REM
CELL 1.54180    7.73069    7.73069    9.39019   90.00000   90.00000  120.00000
LATT -1
SFAC Li O  S  Fe 
Li     1 -0.3293820000000 -0.0951640000000  0.2086650000000 1.0  -0.00
Li     1  0.2342180000000  0.3293820000000  0.2086650000000 1.0  -0.00
Li     1  0.0951640000000 -0.2342180000000  0.2086650000000 1.0  -0.00
Li     1 -0.1127860000000 -0.4441140000000 -0.2908870000000 1.0  -0.05
Li     1 -0.3313280000000  0.1127860000000 -0.2908870000000 1.0  -0.05
Li     1  0.4441140000000  0.3313280000000 -0.2908870000000 1.0  -0.05
O      2 -0.3342790000000 -0.4055490000000 -0.2956020000000 1.0   0.18
O      2 -0.0712700000000  0.3342790000000 -0.2956020000000 1.0   0.18
O      2  0.4055490000000  0.0712700000000 -0.2956020000000 1.0   0.18
S      3 -0.3156020000000 -0.0115960000000  0.4430240000000 1.0   0.11
S      3  0.3040060000000  0.3156020000000  0.4430240000000 1.0   0.11
S      3  0.0115960000000 -0.3040060000000  0.4430240000000 1.0   0.11
S      3  0.0295630000000  0.6727980000000 -0.0290560000000 1.0   0.12
S      3 -0.3567650000000 -0.0295630000000 -0.0290560000000 1.0   0.12
S      3 -0.6727980000000  0.3567650000000 -0.0290560000000 1.0   0.12
Fe     4 -0.0044950000000  0.2546860000000 -0.4727920000000 1.0   3.82
Fe     4  0.2591820000000  0.0044950000000 -0.4727920000000 1.0   3.82
Fe     4 -0.2546860000000 -0.2591820000000 -0.4727920000000 1.0   3.82
Fe     4 -0.4133960000000 -0.3338410000000 -0.1187460000000 1.0   3.82
Fe     4  0.0795550000000  0.4133960000000 -0.1187460000000 1.0   3.82
Fe     4  0.3338410000000 -0.0795550000000 -0.1187460000000 1.0   3.82
END
