TITL LFSO-Li3FeS2O-201025-034508-02b060 0.0408 289.952788 -5.01132391E+003 8.10282 8.26444 14 (P3) n - 1
REM
REM Run started: Sun, 25 Oct 2020 07:01:27 +0000 in /scratch/scratch/uccabz1/launch_tmp/launcher_2020-10-25-03-45-05-878514
REM CASTEP 19.11| from code version Version unavailable
REM Functional Perdew Burke Ernzerhof Relativity Koelling-Harmon Dispersion off
REM Cut-off 340.0000 eV Grid scale 1.7500 Gmax 16.5316 1/A FBSC none
REM MP grid 3 3 2 Offset 0.000 0.000 0.000 No. kpts 5 Spacing 0.07
REM Total runtime: 12301 s
REM Overall efficiency: 72.1538 %
REM
REM
REM
REM compiler GCC version 4.9.2
REM options -cpp -iprefix /scratch/UCL/applications/gcc/4.9.2/bin/../lib/gcc/x86_64-unknown-linux-gnu/4.9.2/ -mtune=corei7 -march=x86-64 -g -O2
REM COMMAND_LINE
REM seed 727956605 2081608731 813654537 -1363867261 -1037453899 -1789561566 1515699873 -847695497 367809598 1696286703 -803213270 -2136095673
REM
REM S 3|1.8|5|6|7|30:31:32(qc=5)
REM O 2|1.5|12|13|15|20:21(qc=5)
REM Li 1|1.3|8|9|10|10U:20(qc=5)
REM Fe 3|2.2|2.0|1.0|8|9|10|40:41:32(qc=5)
REM Fe d:4.0 
REM
CELL 1.54180    5.97296    5.97296    9.38464   90.00000   90.00000  120.00000
LATT -1
SFAC Li O  S  Fe 
Li     1  0.4202000000000  0.3362890000000 -0.1103020000000 1.0  -0.02
Li     1 -0.3362890000000  0.0839110000000 -0.1103020000000 1.0  -0.02
Li     1 -0.0839110000000 -0.4202000000000 -0.1103020000000 1.0  -0.02
Li     1  0.3151550000000  0.1395980000000  0.1503190000000 1.0   0.02
Li     1 -0.1395980000000  0.1755570000000  0.1503190000000 1.0   0.02
Li     1 -0.1755570000000 -0.3151550000000  0.1503190000000 1.0   0.02
O      2  0.0000000000000  0.0000000000000  0.2605270000000 1.0   0.11
O      2 -0.3333330000000  0.3333330000000  0.0323010000000 1.0   0.01
S      3 -0.0120200000000 -0.3463230000000 -0.3776190000000 1.0   0.17
S      3  0.3463230000000  0.3343030000000 -0.3776190000000 1.0   0.17
S      3 -0.3343030000000  0.0120200000000 -0.3776190000000 1.0   0.17
S      3  0.0000000000000  0.0000000000000 -0.0392690000000 1.0   0.12
Fe     4  0.0000000000000  0.0000000000000 -0.2824570000000 1.0   3.43
Fe     4  0.0000000000000  0.0000000000000 -0.5367810000000 1.0   3.89
END
