TITL LFSO-Li5FeS2O2-201026-082510-59343c 0.0231 188.187900 -3.33909997E+003 5.07880 5.22064 10 (P3) n - 1
REM
REM Run started: Mon, 26 Oct 2020 10:36:56 +0000 in /lustre/scratch/uccabz1/launch_tmp/launcher_2020-10-26-08-25-08-936101
REM CASTEP 20.1 from code version af48c487+ pr-geom-scf-spinfix Tue Jun 2 15:39:59 2020 +0100
REM Functional Perdew Burke Ernzerhof Relativity Koelling-Harmon Dispersion off
REM Cut-off 340.0000 eV Grid scale 1.7500 Gmax 16.5316 1/A FBSC none
REM MP grid 4 4 2 Offset 0.000 0.000 0.000 No. kpts 16 Spacing 0.07
REM Total runtime: 8385.26 s
REM Overall efficiency: 92 %
REM
REM
REM
REM compiler GCC version 4.9.2
REM options -cpp -iprefix /lustre/shared/ucl/apps/gcc/4.9.2/bin/../lib/gcc/x86_64-unknown-linux-gnu/4.9.2/ -mtune=corei7 -march=x86-64 -g -Og
REM COMMAND_LINE
REM seed -848784939 -1184627966 -1002285248 2065203280 -1852928452 -1547370691 -1115615941 1493352269 73781654 -71893451 -1290270214 607713185
REM
REM S 3|1.8|5|6|7|30:31:32(qc=5)
REM O 2|1.5|12|13|15|20:21(qc=5)
REM Li 1|1.3|8|9|10|10U:20(qc=5)
REM Fe 3|2.2|2.0|1.0|8|9|10|40:41:32(qc=5)
REM Fe d:4.0 
REM
CELL 1.54180    4.32134    4.32134   11.63653   90.00000   90.00000  120.00000
LATT -1
SFAC Li O  S  Fe 
Li     1 -0.0076390000000 -0.3401580000000  0.4600160000000 1.0  -0.04
Li     1  0.3401580000000  0.3325180000000  0.4600160000000 1.0  -0.04
Li     1 -0.3325180000000  0.0076390000000  0.4600160000000 1.0  -0.04
Li     1  0.0000000000000 -0.0000000000000 -0.3249800000000 1.0   0.06
Li     1 -0.3333330000000  0.3333330000000  0.2181440000000 1.0  -0.06
O      2  0.3333330000000 -0.3333330000000 -0.4617330000000 1.0   0.50
O      2 -0.3333330000000  0.3333330000000  0.0598400000000 1.0   0.03
S      3  0.0000000000000 -0.0000000000000  0.2995140000000 1.0   0.00
S      3 -0.3333330000000  0.3333330000000 -0.3751150000000 1.0   0.59
Fe     4  0.0000000000000 -0.0000000000000  0.0606110000000 1.0   4.06
END
