TITL LFSO-Li6FeS3O-201027-173321-59b201 0.0259 229.379644 -3.40590430E+003 -2.34540 3.77357 11 (P4) n - 1
REM
REM Run started: Tue, 27 Oct 2020 20:09:00 +0000 in /scratch/scratch/uccabz1/launch_tmp/launcher_2020-10-27-17-33-19-846151
REM CASTEP 19.11| from code version Version unavailable
REM Functional Perdew Burke Ernzerhof Relativity Koelling-Harmon Dispersion off
REM Cut-off 340.0000 eV Grid scale 1.7500 Gmax 16.5316 1/A FBSC none
REM MP grid 3 3 2 Offset 0.000 0.000 0.000 No. kpts 3 Spacing 0.07
REM Total runtime: 9531.17 s
REM Overall efficiency: 80.8462 %
REM
REM
REM
REM compiler GCC version 4.9.2
REM options -cpp -iprefix /scratch/UCL/applications/gcc/4.9.2/bin/../lib/gcc/x86_64-unknown-linux-gnu/4.9.2/ -mtune=corei7 -march=x86-64 -g -O2
REM COMMAND_LINE
REM seed -1689565054 1950582511 -407777889 -1369267092 2117383212 530350548 1816784150 2143452121 1563075137 -1645470764 1796151095 1207305728
REM
REM S 3|1.8|5|6|7|30:31:32(qc=5)
REM O 2|1.5|12|13|15|20:21(qc=5)
REM Li 1|1.3|8|9|10|10U:20(qc=5)
REM Fe 3|2.2|2.0|1.0|8|9|10|40:41:32(qc=5)
REM Fe d:4.0 
REM
CELL 1.54180    5.45938    5.45938    7.69605   90.00000   90.00000   90.00000
LATT -1
SFAC Li O  S  Fe 
Li     1 -0.2477040000000 -0.2193630000000  0.2646990000000 1.0   0.09
Li     1  0.2477040000000  0.2193630000000  0.2646990000000 1.0   0.09
Li     1 -0.2193630000000  0.2477040000000  0.2646990000000 1.0   0.09
Li     1  0.2193630000000 -0.2477040000000  0.2646990000000 1.0   0.09
Li     1  0.5000000000000  0.0000000000000 -0.2323930000000 1.0   0.14
Li     1 -0.0000000000000  0.5000000000000 -0.2323930000000 1.0   0.14
O      2  0.0000000000000  0.0000000000000 -0.3080900000000 1.0   0.01
S      3 -0.5000000000000  0.0000000000000  0.0851670000000 1.0   0.03
S      3 -0.0000000000000 -0.5000000000000  0.0851670000000 1.0   0.03
S      3 -0.0000000000000  0.0000000000000 -0.5283860000000 1.0   0.01
Fe     4 -0.5000000000000  0.5000000000000  0.0255150000000 1.0  -3.07
END
