TITL LFSO-LiFe3S4O-201028-123056-03559e -0.0171 411.100561 -8.87685224E+003 -23.9895 24.2494 18 (Pm) n - 1
REM
REM Run started: Thu, 29 Oct 2020 07:20:49 +0000 in /lustre/scratch/uccabz1/launch_tmp/launcher_2020-10-28-12-30-54-604090
REM CASTEP 20.1 from code version af48c487+ pr-geom-scf-spinfix Tue Jun 2 15:39:59 2020 +0100
REM Functional Perdew Burke Ernzerhof Relativity Koelling-Harmon Dispersion off
REM Cut-off 340.0000 eV Grid scale 1.7500 Gmax 16.5316 1/A FBSC none
REM MP grid 4 2 2 Offset 0.000 0.000 0.000 No. kpts 4 Spacing 0.07
REM Total runtime: 65707.2 s
REM Overall efficiency: 87.8462 %
REM
REM
REM
REM compiler GCC version 4.9.2
REM options -cpp -iprefix /lustre/shared/ucl/apps/gcc/4.9.2/bin/../lib/gcc/x86_64-unknown-linux-gnu/4.9.2/ -mtune=corei7 -march=x86-64 -g -Og
REM COMMAND_LINE
REM seed -1791435549 485812258 165977211 453171455 1147966473 -1015588051 -268983204 -607050056 2025813068 1666393406 999920121 1331027639
REM
REM S 3|1.8|5|6|7|30:31:32(qc=5)
REM O 2|1.5|12|13|15|20:21(qc=5)
REM Li 1|1.3|8|9|10|10U:20(qc=5)
REM Fe 3|2.2|2.0|1.0|8|9|10|40:41:32(qc=5)
REM Fe d:4.0 
REM
CELL 1.54180    4.06407    9.38873   10.77665   90.00000   90.00000   88.74962
LATT -1
SFAC Li O  S  Fe 
Li     1  0.2285170000000 -0.4310360000000 -0.1966830000000 1.0   0.07
Li     1  0.2285170000000 -0.4310360000000  0.1966830000000 1.0   0.07
O      2  0.2429350000000  0.3850470000000  0.2785800000000 1.0  -0.20
O      2  0.2429350000000  0.3850470000000 -0.2785800000000 1.0  -0.20
S      3 -0.2392130000000  0.1597350000000 -0.4017600000000 1.0  -0.15
S      3 -0.2392130000000  0.1597350000000  0.4017600000000 1.0  -0.15
S      3 -0.2902700000000 -0.3384960000000 -0.3997220000000 1.0  -0.10
S      3 -0.2902700000000 -0.3384960000000  0.3997220000000 1.0  -0.10
S      3 -0.2741800000000 -0.3679340000000  0.0987360000000 1.0  -0.07
S      3 -0.2741800000000 -0.3679340000000 -0.0987360000000 1.0  -0.07
S      3  0.2229240000000 -0.0392680000000 -0.1752820000000 1.0  -0.11
S      3  0.2229240000000 -0.0392680000000  0.1752820000000 1.0  -0.11
Fe     4  0.2665910000000  0.1724630000000  0.2819490000000 1.0  -3.76
Fe     4  0.2665910000000  0.1724630000000 -0.2819490000000 1.0  -3.76
Fe     4 -0.2726030000000 -0.1527060000000 -0.2325300000000 1.0  -3.85
Fe     4 -0.2726030000000 -0.1527060000000  0.2325300000000 1.0  -3.85
Fe     4 -0.2609730000000  0.4192570000000  0.3242610000000 1.0  -3.82
Fe     4 -0.2609730000000  0.4192570000000 -0.3242610000000 1.0  -3.82
END
