TITL LFSO-Li6FeS3O-201027-135649-bcf6a1 0.1893 557.013455 -6.82520058E+003 0.557740E-07 8.56984 22 (R3m) n - 1
REM
REM Run started: Wed, 28 Oct 2020 06:57:52 +0000 in /lustre/scratch/uccabz1/launch_tmp/launcher_2020-10-27-13-56-47-809204
REM CASTEP 20.1 from code version af48c487+ pr-geom-scf-spinfix Tue Jun 2 15:39:59 2020 +0100
REM Functional Perdew Burke Ernzerhof Relativity Koelling-Harmon Dispersion off
REM Cut-off 340.0000 eV Grid scale 1.7500 Gmax 16.5316 1/A FBSC none
REM MP grid 3 3 3 Offset 0.000 0.000 0.000 No. kpts 6 Spacing 0.07
REM Total runtime: 64275.5 s
REM Overall efficiency: 68.8333 %
REM
REM
REM
REM compiler GCC version 4.9.2
REM options -cpp -iprefix /lustre/shared/ucl/apps/gcc/4.9.2/bin/../lib/gcc/x86_64-unknown-linux-gnu/4.9.2/ -mtune=corei7 -march=x86-64 -g -Og
REM COMMAND_LINE
REM seed -1675376014 -2023374880 1781930581 1545768948 -496071584 510297212 -2142795581 -201259015 1022382580 2103553960 1002380682 1027971839
REM
REM S 3|1.8|5|6|7|30:31:32(qc=5)
REM O 2|1.5|12|13|15|20:21(qc=5)
REM Li 1|1.3|8|9|10|10U:20(qc=5)
REM Fe 3|2.2|2.0|1.0|8|9|10|40:41:32(qc=5)
REM Fe d:4.0 
REM
CELL 1.54180   11.51780   11.51780   11.51780   39.52154   39.52154   39.52154
LATT -1
SFAC Li O  S  Fe 
Li     1  0.1874460000000  0.1873590000000 -0.4821680000000 1.0  -0.02
Li     1 -0.4821680000000  0.1874460000000  0.1873590000000 1.0  -0.02
Li     1  0.1873590000000 -0.4821680000000  0.1874460000000 1.0  -0.02
Li     1 -0.1000240000000 -0.0995350000000  0.2691550000000 1.0   0.02
Li     1  0.2691550000000 -0.1000240000000 -0.0995350000000 1.0   0.02
Li     1 -0.0995350000000  0.2691550000000 -0.1000240000000 1.0   0.02
Li     1 -0.0112350000000  0.3113990000000  0.3131900000000 1.0   0.02
Li     1  0.3131900000000 -0.0112350000000  0.3113990000000 1.0   0.02
Li     1  0.3113990000000  0.3131900000000 -0.0112350000000 1.0   0.02
Li     1 -0.3721770000000 -0.3722390000000  0.0573680000000 1.0  -0.02
Li     1  0.0573680000000 -0.3721770000000 -0.3722390000000 1.0  -0.02
Li     1 -0.3722390000000  0.0573680000000 -0.3721770000000 1.0  -0.02
O      2  0.2528470000000  0.2528470000000  0.2528470000000 1.0   0.00
O      2  0.0071710000000  0.0071710000000  0.0071710000000 1.0  -0.01
S      3 -0.4812200000000  0.0176520000000 -0.4813520000000 1.0  -0.13
S      3 -0.4813520000000 -0.4812200000000  0.0176520000000 1.0  -0.13
S      3  0.0176520000000 -0.4813520000000 -0.4812200000000 1.0  -0.13
S      3  0.4961230000000 -0.0107970000000 -0.0117420000000 1.0   0.12
S      3 -0.0117420000000  0.4961230000000 -0.0107970000000 1.0   0.12
S      3 -0.0107970000000 -0.0117420000000  0.4961230000000 1.0   0.12
Fe     4 -0.3287250000000 -0.3287250000000 -0.3287250000000 1.0  -3.61
Fe     4 -0.1579870000000 -0.1579870000000 -0.1579870000000 1.0   3.64
END
