TITL LFSO-Li5FeS2O2-201026-134927-d7a2cd 0.0120 193.468385 -3.34052402E+003 -2.08964 2.69678 10 (Pmm2) n - 1
REM
REM Run started: Mon, 26 Oct 2020 15:17:20 +0000 in /lustre/scratch/uccabz1/launch_tmp/launcher_2020-10-26-13-49-26-093058
REM CASTEP 20.1 from code version af48c487+ pr-geom-scf-spinfix Tue Jun 2 15:39:59 2020 +0100
REM Functional Perdew Burke Ernzerhof Relativity Koelling-Harmon Dispersion off
REM Cut-off 340.0000 eV Grid scale 1.7500 Gmax 16.5316 1/A FBSC none
REM MP grid 5 2 2 Offset 0.000 0.000 0.000 No. kpts 3 Spacing 0.07
REM Total runtime: 5403.01 s
REM Overall efficiency: 86.1 %
REM
REM
REM
REM compiler GCC version 4.9.2
REM options -cpp -iprefix /lustre/shared/ucl/apps/gcc/4.9.2/bin/../lib/gcc/x86_64-unknown-linux-gnu/4.9.2/ -mtune=corei7 -march=x86-64 -g -Og
REM COMMAND_LINE
REM seed -285380805 -1443130527 139447786 -1045198550 626156331 -899381193 1175014701 1569460530 -1234516061 1610200709 -1694073974 656652152
REM
REM S 3|1.8|5|6|7|30:31:32(qc=5)
REM O 2|1.5|12|13|15|20:21(qc=5)
REM Li 1|1.3|8|9|10|10U:20(qc=5)
REM Fe 3|2.2|2.0|1.0|8|9|10|40:41:32(qc=5)
REM Fe d:4.0 
REM
CELL 1.54180    3.17125    7.67899    7.94467   90.00000   90.00000   90.00000
LATT -1
SFAC Li O  S  Fe 
Li     1 -0.3974610000000 -0.1965980000000 -0.2760460000000 1.0   0.01
Li     1 -0.3974610000000  0.1965980000000  0.2760460000000 1.0   0.01
Li     1 -0.3974610000000  0.1965980000000 -0.2760460000000 1.0   0.01
Li     1 -0.3974610000000 -0.1965980000000  0.2760460000000 1.0   0.01
Li     1  0.1954510000000  0.5000000000000  0.0000000000000 1.0  -0.09
O      2  0.6475560000000 -0.1602380000000 -0.5000000000000 1.0   0.11
O      2  0.6475560000000  0.1602380000000  0.5000000000000 1.0   0.11
S      3  0.1252050000000  0.0000000000000  0.1368260000000 1.0   0.05
S      3  0.1252050000000  0.0000000000000 -0.1368260000000 1.0   0.05
Fe     4  0.1413300000000  0.0000000000000 -0.5000000000000 1.0  -2.37
END
