TITL LFSO-Li2Fe2S2O-201023-211041-0fcbcc 0.0757 359.729813 -9.50969022E+003 -24.0000 24.1239 21 (C2) n - 1
REM
REM Run started: Sat, 24 Oct 2020 12:46:12 +0100 in /lustre/scratch/uccabz1/launch_tmp/launcher_2020-10-23-20-10-39-450849
REM CASTEP 20.1 from code version af48c487+ pr-geom-scf-spinfix Tue Jun 2 15:39:59 2020 +0100
REM Functional Perdew Burke Ernzerhof Relativity Koelling-Harmon Dispersion off
REM Cut-off 340.0000 eV Grid scale 1.7500 Gmax 16.5316 1/A FBSC none
REM MP grid 3 3 2 Offset 0.000 0.000 0.000 No. kpts 6 Spacing 0.07
REM Total runtime: 60826.2 s
REM Overall efficiency: 73.9231 %
REM
REM
REM
REM compiler GCC version 4.9.2
REM options -cpp -iprefix /lustre/shared/ucl/apps/gcc/4.9.2/bin/../lib/gcc/x86_64-unknown-linux-gnu/4.9.2/ -mtune=corei7 -march=x86-64 -g -Og
REM COMMAND_LINE
REM seed -779207611 1220527132 -1036609416 -338742721 160227209 -1328975982 1981556155 1565917644 875855170 -1985940007 -1307149550 -1971972645
REM
REM S 3|1.8|5|6|7|30:31:32(qc=5)
REM O 2|1.5|12|13|15|20:21(qc=5)
REM Li 1|1.3|8|9|10|10U:20(qc=5)
REM Fe 3|2.2|2.0|1.0|8|9|10|40:41:32(qc=5)
REM Fe d:4.0 
REM
CELL 1.54180    5.85536    5.85536   12.87819  100.66211  100.66211   56.44013
LATT -1
SFAC Li O  S  Fe 
Li     1 -0.3323930000000  0.1707770000000 -0.1997750000000 1.0   0.06
Li     1 -0.1707770000000  0.3323930000000  0.1997750000000 1.0   0.06
Li     1  0.2874260000000  0.1031950000000 -0.4342690000000 1.0   0.04
Li     1 -0.1031950000000 -0.2874260000000  0.4342690000000 1.0   0.04
Li     1  0.3180160000000 -0.2922030000000  0.3804080000000 1.0   0.03
Li     1  0.2922030000000 -0.3180160000000 -0.3804080000000 1.0   0.03
O      2  0.6627640000000 -0.4141170000000  0.3179340000000 1.0  -0.16
O      2  0.4141170000000 -0.6627640000000 -0.3179340000000 1.0  -0.16
O      2  0.0410960000000 -0.0410960000000 -0.5000000000000 1.0  -0.13
S      3  0.1029790000000  0.0543710000000 -0.2380600000000 1.0  -0.13
S      3 -0.0543710000000 -0.1029790000000  0.2380600000000 1.0  -0.13
S      3  0.2184490000000  0.1676370000000  0.0943090000000 1.0  -0.10
S      3 -0.1676370000000 -0.2184490000000 -0.0943090000000 1.0  -0.10
S      3 -0.2674820000000 -0.3676490000000 -0.4163870000000 1.0  -0.14
S      3  0.3676490000000  0.2674820000000  0.4163870000000 1.0  -0.14
Fe     4 -0.2720350000000  0.1625160000000 -0.4069530000000 1.0  -3.83
Fe     4 -0.1625160000000  0.2720350000000  0.4069530000000 1.0  -3.83
Fe     4  0.0625140000000  0.4823540000000 -0.2611750000000 1.0  -3.87
Fe     4 -0.4823540000000 -0.0625140000000  0.2611750000000 1.0  -3.87
Fe     4  0.0158090000000 -0.3645430000000  0.0767150000000 1.0  -3.84
Fe     4  0.3645430000000 -0.0158090000000 -0.0767150000000 1.0  -3.84
END
