TITL LFSO-Li2Fe3S3O-201025-120720-7c898d -0.0175 178.441405 -4.33499493E+003 -11.7899 11.9786 9 (C2) n - 1
REM
REM Run started: Sun, 25 Oct 2020 22:10:04 +0000 in /scratch/scratch/uccabz1/launch_tmp/launcher_2020-10-25-12-07-18-437107
REM CASTEP 19.11| from code version Version unavailable
REM Functional Perdew Burke Ernzerhof Relativity Koelling-Harmon Dispersion off
REM Cut-off 340.0000 eV Grid scale 1.7500 Gmax 16.5316 1/A FBSC none
REM MP grid 5 5 1 Offset 0.000 0.000 0.000 No. kpts 13 Spacing 0.07
REM Total runtime: 36557.8 s
REM Overall efficiency: 90.25 %
REM
REM
REM
REM compiler GCC version 4.9.2
REM options -cpp -iprefix /scratch/UCL/applications/gcc/4.9.2/bin/../lib/gcc/x86_64-unknown-linux-gnu/4.9.2/ -mtune=corei7 -march=x86-64 -g -O2
REM COMMAND_LINE
REM seed 1372997919 -1376543412 -1021177533 -374355049 1981497261 -2122592504 851749433 -1366104211 -276820100 1035517671 1130046747 1624297685
REM
REM S 3|1.8|5|6|7|30:31:32(qc=5)
REM O 2|1.5|12|13|15|20:21(qc=5)
REM Li 1|1.3|8|9|10|10U:20(qc=5)
REM Fe 3|2.2|2.0|1.0|8|9|10|40:41:32(qc=5)
REM Fe d:4.0 
REM
CELL 1.54180    3.50741    3.50741   14.71535   97.04870   96.60159   90.16168
LATT -1
SFAC Li O  S  Fe 
Li     1  0.0804610000000  0.0798600000000 -0.2427370000000 1.0   0.01
Li     1  0.3225970000000  0.3231980000000  0.2427370000000 1.0   0.01
O      2  0.2181250000000  0.2181250000000  0.0000000000000 1.0  -0.15
S      3 -0.3789530000000 -0.3888830000000 -0.1945320000000 1.0  -0.03
S      3 -0.1943510000000 -0.1844210000000  0.1945320000000 1.0  -0.03
S      3 -0.0235490000000  0.4764510000000  0.5000000000000 1.0  -0.17
Fe     4 -0.2413770000000 -0.7459310000000  0.0769820000000 1.0  -3.83
Fe     4  0.1770870000000 -0.3183590000000 -0.0769820000000 1.0  -3.83
Fe     4 -0.5244630000000 -0.0244630000000 -0.5000000000000 1.0  -3.75
END
