TITL LFSO-Li2FeSO-201023-064525-bab820 0.0268 180.328700 -4.00205085E+003 7.99440 8.11954 10 (P3) n - 1
REM
REM Run started: Fri, 23 Oct 2020 07:33:05 +0100 in /lustre/scratch/uccabz1/launch_tmp/launcher_2020-10-23-05-45-23-840976
REM CASTEP 20.1 from code version af48c487+ pr-geom-scf-spinfix Tue Jun 2 15:39:59 2020 +0100
REM Functional Perdew Burke Ernzerhof Relativity Koelling-Harmon Dispersion off
REM Cut-off 340.0000 eV Grid scale 1.7500 Gmax 16.5316 1/A FBSC none
REM MP grid 5 5 2 Offset 0.000 0.000 0.000 No. kpts 9 Spacing 0.07
REM Total runtime: 3160.76 s
REM Overall efficiency: 81 %
REM
REM
REM
REM compiler GCC version 4.9.2
REM options -cpp -iprefix /lustre/shared/ucl/apps/gcc/4.9.2/bin/../lib/gcc/x86_64-unknown-linux-gnu/4.9.2/ -mtune=corei7 -march=x86-64 -g -Og
REM COMMAND_LINE
REM seed -1949073159 -1323379354 -1954673753 1790132554 -878798917 1004929837 -408873887 -929508898 1133145444 1445694051 363066699 -1345884554
REM
REM S 3|1.8|5|6|7|30:31:32(qc=5)
REM O 2|1.5|12|13|15|20:21(qc=5)
REM Li 1|1.3|8|9|10|10U:20(qc=5)
REM Fe 3|2.2|2.0|1.0|8|9|10|40:41:32(qc=5)
REM Fe d:4.0 
REM
CELL 1.54180    3.86623    3.86623   13.93027   90.00000   90.00000  120.00000
LATT -1
SFAC Li O  S  Fe 
Li     1  0.0219610000000  0.3336940000000  0.4361700000000 1.0  -0.02
Li     1  0.3117330000000 -0.0219610000000  0.4361700000000 1.0  -0.02
Li     1 -0.3336940000000 -0.3117330000000  0.4361700000000 1.0  -0.02
Li     1  0.0000000000000 -0.0000000000000 -0.3594750000000 1.0  -0.02
O      2 -0.3333330000000  0.3333330000000  0.3681960000000 1.0   0.03
O      2 -0.3333330000000  0.3333330000000 -0.1338620000000 1.0   0.08
S      3  0.3333330000000 -0.3333330000000  0.1394320000000 1.0   0.08
S      3  0.3333330000000 -0.3333330000000 -0.4296870000000 1.0   0.01
Fe     4  0.0000000000000 -0.0000000000000 -0.1221080000000 1.0   3.98
Fe     4  0.0000000000000 -0.0000000000000  0.1922380000000 1.0   3.91
END
