TITL LFSO-Li4Fe3S4O-201029-030457-9e4dc5 0.0598 482.824501 -1.00769953E+004 20.0211 21.4773 24 (C2221) n - 1
REM
REM Run started: Thu, 29 Oct 2020 12:59:41 +0000 in /lustre/scratch/uccabz1/launch_tmp/launcher_2020-10-29-03-04-55-131273
REM CASTEP 20.1 from code version af48c487+ pr-geom-scf-spinfix Tue Jun 2 15:39:59 2020 +0100
REM Functional Perdew Burke Ernzerhof Relativity Koelling-Harmon Dispersion off
REM Cut-off 340.0000 eV Grid scale 1.7500 Gmax 16.5316 1/A FBSC none
REM MP grid 5 3 1 Offset 0.000 0.000 0.000 No. kpts 8 Spacing 0.07
REM Total runtime: 42141.6 s
REM Overall efficiency: 75.9167 %
REM
REM
REM
REM compiler GCC version 4.9.2
REM options -cpp -iprefix /lustre/shared/ucl/apps/gcc/4.9.2/bin/../lib/gcc/x86_64-unknown-linux-gnu/4.9.2/ -mtune=corei7 -march=x86-64 -g -Og
REM COMMAND_LINE
REM seed 1979657922 -757485415 1804158347 -2106714912 5507843 -1839393250 -597885253 -1938550554 -1990832862 736623563 -65570238 -381620614
REM
REM S 3|1.8|5|6|7|30:31:32(qc=5)
REM O 2|1.5|12|13|15|20:21(qc=5)
REM Li 1|1.3|8|9|10|10U:20(qc=5)
REM Fe 3|2.2|2.0|1.0|8|9|10|40:41:32(qc=5)
REM Fe d:4.0 
REM
CELL 1.54180    3.74726    6.08016   22.27547   90.00000   90.00000  107.94804
LATT -1
SFAC Li O  S  Fe 
Li     1  0.1665760000000  0.3011600000000  0.1554710000000 1.0  -0.04
Li     1 -0.1665760000000 -0.3011600000000 -0.3445290000000 1.0  -0.04
Li     1  0.1345850000000  0.3011600000000  0.3445290000000 1.0  -0.04
Li     1 -0.1345850000000 -0.3011600000000 -0.1554710000000 1.0  -0.04
Li     1 -0.0771950000000  0.3308270000000  0.0236960000000 1.0  -0.02
Li     1  0.0771950000000 -0.3308270000000 -0.4763040000000 1.0  -0.02
Li     1 -0.5919780000000  0.3308270000000  0.4763040000000 1.0  -0.02
Li     1  0.5919780000000 -0.3308270000000 -0.0236960000000 1.0  -0.02
O      2 -0.3673380000000  0.0000000000000 -0.0000000000000 1.0   0.18
O      2  0.3673380000000  0.0000000000000 -0.5000000000000 1.0   0.18
S      3 -0.5103050000000 -0.4978000000000 -0.4227830000000 1.0   0.09
S      3  0.5103050000000  0.4978000000000  0.0772170000000 1.0   0.09
S      3  0.0125050000000 -0.4978000000000 -0.0772170000000 1.0   0.09
S      3 -0.0125050000000  0.4978000000000  0.4227830000000 1.0   0.09
S      3  0.5013350000000  0.0164460000000  0.3182030000000 1.0  -0.17
S      3 -0.5013350000000 -0.0164460000000 -0.1817970000000 1.0  -0.17
S      3 -0.4848890000000  0.0164460000000  0.1817970000000 1.0  -0.17
S      3  0.4848890000000 -0.0164460000000 -0.3182030000000 1.0  -0.17
Fe     4 -0.3833140000000  0.1272860000000 -0.0789070000000 1.0   3.76
Fe     4  0.3833140000000 -0.1272860000000  0.4210930000000 1.0   3.76
Fe     4  0.5106000000000  0.1272860000000 -0.4210930000000 1.0   3.76
Fe     4 -0.5106000000000 -0.1272860000000  0.0789070000000 1.0   3.76
Fe     4  0.0078200000000  0.0156400000000 -0.2500000000000 1.0   2.60
Fe     4 -0.0078200000000 -0.0156400000000  0.2500000000000 1.0   2.60
END
