TITL LFSO-Li5FeS2O2-201026-144816-cb66f8 -0.0434 128.621997 -3.33850639E+003 3.79998 3.85654 10 (F222) n - 1
REM
REM Run started: Mon, 26 Oct 2020 15:03:59 +0000 in /lustre/scratch/uccabz1/launch_tmp/launcher_2020-10-26-14-48-14-806048
REM CASTEP 20.1 from code version af48c487+ pr-geom-scf-spinfix Tue Jun 2 15:39:59 2020 +0100
REM Functional Perdew Burke Ernzerhof Relativity Koelling-Harmon Dispersion off
REM Cut-off 340.0000 eV Grid scale 1.7500 Gmax 16.5316 1/A FBSC none
REM MP grid 5 5 2 Offset 0.000 0.000 0.000 No. kpts 15 Spacing 0.07
REM Total runtime: 1016.12 s
REM Overall efficiency: 81.2 %
REM
REM
REM
REM compiler GCC version 4.9.2
REM options -cpp -iprefix /lustre/shared/ucl/apps/gcc/4.9.2/bin/../lib/gcc/x86_64-unknown-linux-gnu/4.9.2/ -mtune=corei7 -march=x86-64 -g -Og
REM COMMAND_LINE
REM seed 352130387 -274183865 -29912188 1481617082 -388475443 692909046 -412853518 -303881874 -1403357233 -1199425841 1350150113 572325605
REM
REM S 3|1.8|5|6|7|30:31:32(qc=5)
REM O 2|1.5|12|13|15|20:21(qc=5)
REM Li 1|1.3|8|9|10|10U:20(qc=5)
REM Fe 3|2.2|2.0|1.0|8|9|10|40:41:32(qc=5)
REM Fe d:4.0 
REM
CELL 1.54180    3.91792    3.91792    9.57475   96.53757   96.53757  116.32852
LATT -1
SFAC Li O  S  Fe 
Li     1  0.0444910000000 -0.2540000000000 -0.3245330000000 1.0  -0.00
Li     1 -0.3690250000000 -0.0705330000000 -0.3245330000000 1.0  -0.00
Li     1  0.0705330000000  0.3690250000000  0.3245330000000 1.0  -0.00
Li     1  0.2540000000000 -0.0444910000000  0.3245330000000 1.0  -0.00
Li     1 -0.2500000000000  0.2500000000000 -0.5000000000000 1.0  -0.01
O      2  0.4796730000000 -0.4796730000000 -0.5000000000000 1.0   0.01
O      2  0.0203270000000 -0.0203270000000  0.5000000000000 1.0   0.01
S      3  0.4096370000000  0.4096370000000 -0.1807260000000 1.0   0.04
S      3 -0.4096370000000 -0.4096370000000  0.1807260000000 1.0   0.04
Fe     4  0.0000000000000  0.0000000000000  0.0000000000000 1.0   3.73
END
