TITL LFSO-Li2Fe4S3O2-201026-105710-e42d1a 0.1635 489.052983 -1.12705994E+004 -32.0000 32.2126 22 (P-1) n - 1
REM
REM Run started: Tue, 27 Oct 2020 11:38:32 +0000 in /scratch/scratch/uccabz1/launch_tmp/launcher_2020-10-26-10-57-08-926779
REM CASTEP 19.11| from code version Version unavailable
REM Functional Perdew Burke Ernzerhof Relativity Koelling-Harmon Dispersion off
REM Cut-off 340.0000 eV Grid scale 1.7500 Gmax 16.5316 1/A FBSC none
REM MP grid 3 2 3 Offset 0.000 0.000 0.000 No. kpts 9 Spacing 0.07
REM Total runtime: 100100 s
REM Overall efficiency: 74.3333 %
REM
REM
REM
REM compiler GCC version 4.9.2
REM options -cpp -iprefix /scratch/UCL/applications/gcc/4.9.2/bin/../lib/gcc/x86_64-unknown-linux-gnu/4.9.2/ -mtune=corei7 -march=x86-64 -g -O2
REM COMMAND_LINE
REM seed -1032764149 -620249412 1555321489 -1939033528 -688404829 -1634814568 389535080 -2087798115 684065856 1841230455 1906325938 1317745359
REM
REM S 3|1.8|5|6|7|30:31:32(qc=5)
REM O 2|1.5|12|13|15|20:21(qc=5)
REM Li 1|1.3|8|9|10|10U:20(qc=5)
REM Fe 3|2.2|2.0|1.0|8|9|10|40:41:32(qc=5)
REM Fe d:4.0 
REM
CELL 1.54180    9.91710    8.77656    9.17578   67.88377  137.79857  112.94082
LATT -1
SFAC Li O  S  Fe 
Li     1 -0.0937750000000 -0.0098190000000 -0.2457750000000 1.0   0.02
Li     1  0.0937750000000  0.0098190000000  0.2457750000000 1.0   0.02
Li     1  0.2154390000000 -0.2969080000000  0.1345850000000 1.0   0.02
Li     1 -0.2154390000000  0.2969080000000 -0.1345850000000 1.0   0.02
O      2  0.2932240000000  0.1042240000000 -0.5037140000000 1.0  -0.20
O      2 -0.2932240000000 -0.1042240000000  0.5037140000000 1.0  -0.20
O      2  0.3997690000000 -0.4383160000000  0.2829130000000 1.0  -0.17
O      2 -0.3997690000000  0.4383160000000 -0.2829130000000 1.0  -0.17
S      3 -0.2480680000000  0.0499020000000  0.0792220000000 1.0  -0.15
S      3  0.2480680000000 -0.0499020000000 -0.0792220000000 1.0  -0.15
S      3  0.0907060000000  0.2660180000000 -0.0192530000000 1.0  -0.18
S      3 -0.0907060000000 -0.2660180000000  0.0192530000000 1.0  -0.18
S      3  0.3449430000000 -0.3371150000000 -0.2305460000000 1.0  -0.17
S      3 -0.3449430000000  0.3371150000000  0.2305460000000 1.0  -0.17
Fe     4  0.3694100000000 -0.0174590000000 -0.2420810000000 1.0  -3.84
Fe     4 -0.3694100000000  0.0174590000000  0.2420810000000 1.0  -3.84
Fe     4  0.3798910000000 -0.4829450000000  0.0715190000000 1.0  -3.87
Fe     4 -0.3798910000000  0.4829450000000 -0.0715190000000 1.0  -3.87
Fe     4  0.3604620000000  0.3337350000000  0.4229050000000 1.0  -3.82
Fe     4 -0.3604620000000 -0.3337350000000 -0.4229050000000 1.0  -3.82
Fe     4 -0.3266130000000 -0.1877120000000 -0.0412890000000 1.0  -3.63
Fe     4  0.3266130000000  0.1877120000000  0.0412890000000 1.0  -3.63
END
