TITL LFSO-Li4Fe3S3O2-201028-231412-cbde72 -0.0602 563.025700 -1.03445565E+004 24.0000 24.2961 24 (I212121) n - 1
REM
REM Run started: Thu, 29 Oct 2020 21:19:55 +0000 in /lustre/scratch/uccabz1/launch_tmp/launcher_2020-10-28-23-14-10-024992
REM CASTEP 20.1 from code version af48c487+ pr-geom-scf-spinfix Tue Jun 2 15:39:59 2020 +0100
REM Functional Perdew Burke Ernzerhof Relativity Koelling-Harmon Dispersion off
REM Cut-off 340.0000 eV Grid scale 1.7500 Gmax 16.5316 1/A FBSC none
REM MP grid 3 3 2 Offset 0.000 0.000 0.000 No. kpts 9 Spacing 0.07
REM Total runtime: 83965.2 s
REM Overall efficiency: 74.1111 %
REM
REM
REM
REM compiler GCC version 4.9.2
REM options -cpp -iprefix /lustre/shared/ucl/apps/gcc/4.9.2/bin/../lib/gcc/x86_64-unknown-linux-gnu/4.9.2/ -mtune=corei7 -march=x86-64 -g -Og
REM COMMAND_LINE
REM seed 666142585 709353854 637260357 -33647704 -957095374 439043273 -181577656 -613982295 -1298184564 -291204275 1001631036 1623049677
REM
REM S 3|1.8|5|6|7|30:31:32(qc=5)
REM O 2|1.5|12|13|15|20:21(qc=5)
REM Li 1|1.3|8|9|10|10U:20(qc=5)
REM Fe 3|2.2|2.0|1.0|8|9|10|40:41:32(qc=5)
REM Fe d:4.0 
REM
CELL 1.54180    9.67682    9.67682    9.67682   95.57193   98.99228  138.29700
LATT -1
SFAC Li O  S  Fe 
Li     1  0.3400070000000  0.3637440000000 -0.1342980000000 1.0  -0.03
Li     1  0.1599930000000  0.0256950000000  0.0237380000000 1.0  -0.03
Li     1 -0.0019580000000 -0.5256950000000 -0.3657020000000 1.0  -0.03
Li     1  0.5019580000000  0.1362560000000  0.4762620000000 1.0  -0.03
Li     1 -0.5692330000000 -0.2437750000000  0.0071070000000 1.0  -0.02
Li     1  0.0692330000000  0.0763400000000  0.3254590000000 1.0  -0.02
Li     1  0.2491180000000 -0.5763400000000  0.4928930000000 1.0  -0.02
Li     1  0.2508820000000 -0.2562250000000  0.1745410000000 1.0  -0.02
O      2 -0.0504810000000  0.1145270000000 -0.5631240000000 1.0   0.16
O      2  0.5504810000000 -0.0126440000000  0.1650070000000 1.0   0.16
O      2  0.1776510000000 -0.4873560000000  0.0631240000000 1.0   0.16
O      2  0.3223490000000  0.3854730000000  0.3349930000000 1.0   0.16
S      3 -0.3301830000000  0.0904010000000 -0.3693850000000 1.0   0.12
S      3 -0.1698170000000 -0.5392020000000  0.4205840000000 1.0   0.12
S      3 -0.0402140000000  0.0392020000000 -0.1306150000000 1.0   0.12
S      3 -0.4597860000000  0.4095990000000  0.0794160000000 1.0   0.12
S      3  0.2195800000000 -0.0304200000000  0.2500000000000 1.0   0.15
S      3  0.2804200000000 -0.4695800000000 -0.2500000000000 1.0   0.15
Fe     4 -0.0607650000000  0.0986290000000 -0.3655280000000 1.0   3.79
Fe     4 -0.4392350000000  0.1952370000000  0.1593940000000 1.0   3.79
Fe     4 -0.0358430000000  0.3047630000000 -0.1344720000000 1.0   3.79
Fe     4 -0.4641570000000 -0.5986290000000  0.3406060000000 1.0   3.79
Fe     4  0.2500000000000  0.3863330000000  0.1363330000000 1.0   3.82
Fe     4 -0.2500000000000  0.1136670000000  0.3636670000000 1.0   3.82
END
