TITL LFSO-Li2Fe4S4O-201024-223509-fb85c5 0.1443 451.811913 -1.09918232E+004 -27.2545 31.2041 22 (P3) n - 1
REM
REM Run started: Wed, 28 Oct 2020 04:43:24 +0000 in /lustre/scratch/uccabz1/launch_tmp/launcher_2020-10-27-23-22-35-705673
REM CASTEP 20.1 from code version af48c487+ pr-geom-scf-spinfix Tue Jun 2 15:39:59 2020 +0100
REM Functional Perdew Burke Ernzerhof Relativity Koelling-Harmon Dispersion off
REM Cut-off 340.0000 eV Grid scale 1.7500 Gmax 16.5316 1/A FBSC none
REM MP grid 3 3 2 Offset 0.000 0.000 0.000 No. kpts 5 Spacing 0.07
REM Total runtime: 35772.6 s
REM Overall efficiency: 68.4615 %
REM
REM
REM
REM compiler GCC version 4.9.2
REM options -cpp -iprefix /scratch/UCL/applications/gcc/4.9.2/bin/../lib/gcc/x86_64-unknown-linux-gnu/4.9.2/ -mtune=corei7 -march=x86-64 -g -O2
REM COMMAND_LINE
REM seed -192721916 288676895 -348042565 -123249363 1491626101 -1637313608 965564454 2048335822 331562259 1672872665 -678978905 -1061952408
REM
REM S 3|1.8|5|6|7|30:31:32(qc=5)
REM O 2|1.5|12|13|15|20:21(qc=5)
REM Li 1|1.3|8|9|10|10U:20(qc=5)
REM Fe 3|2.2|2.0|1.0|8|9|10|40:41:32(qc=5)
REM Fe d:4.0 
REM
CELL 1.54180    8.03937    8.03937    8.07203   90.00000   90.00000  120.00000
LATT -1
SFAC Li O  S  Fe 
Li     1  0.3970020000000  0.3629390000000 -0.2879620000000 1.0   0.09
Li     1 -0.0340630000000 -0.3970020000000 -0.2879620000000 1.0   0.09
Li     1 -0.3629390000000  0.0340630000000 -0.2879620000000 1.0   0.09
Li     1 -0.3333330000000  0.3333330000000  0.0613080000000 1.0   0.08
O      2 -0.0000000000000 -0.0000000000000  0.3009120000000 1.0  -0.35
O      2  0.3333330000000 -0.3333330000000  0.4017030000000 1.0  -0.21
S      3 -0.3770950000000 -0.1319080000000 -0.0321320000000 1.0  -0.10
S      3  0.2451870000000  0.3770950000000 -0.0321320000000 1.0  -0.10
S      3  0.1319080000000 -0.2451870000000 -0.0321320000000 1.0  -0.10
S      3 -0.2376610000000 -0.3455120000000  0.5192640000000 1.0   0.19
S      3 -0.1078500000000  0.2376610000000  0.5192640000000 1.0   0.19
S      3  0.3455120000000  0.1078500000000  0.5192640000000 1.0   0.19
S      3 -0.3333330000000  0.3333330000000 -0.2009140000000 1.0  -0.00
S      3 -0.3333330000000  0.3333330000000  0.3341180000000 1.0   1.21
Fe     4 -0.0242080000000  0.2906840000000 -0.1870730000000 1.0  -3.32
Fe     4  0.3148920000000  0.0242080000000 -0.1870730000000 1.0  -3.32
Fe     4 -0.2906840000000 -0.3148920000000 -0.1870730000000 1.0  -3.32
Fe     4  0.1683320000000  0.2578280000000 -0.6023600000000 1.0  -3.79
Fe     4  0.0894960000000 -0.1683320000000 -0.6023600000000 1.0  -3.79
Fe     4 -0.2578280000000 -0.0894960000000 -0.6023600000000 1.0  -3.79
Fe     4  0.3333330000000 -0.3333330000000 -0.1956210000000 1.0  -3.45
Fe     4  0.3333330000000 -0.3333330000000  0.1697740000000 1.0  -3.80
END
