TITL LFSO-Li5FeSO3-201026-071651-33aaac 0.0013 149.644407 -3.47932215E+003 5.00000 5.03471 10 (Cm) n - 1
REM
REM Run started: Mon, 26 Oct 2020 07:47:21 +0000 in /lustre/scratch/uccabz1/launch_tmp/launcher_2020-10-26-07-16-50-284556
REM CASTEP 20.1 from code version af48c487+ pr-geom-scf-spinfix Tue Jun 2 15:39:59 2020 +0100
REM Functional Perdew Burke Ernzerhof Relativity Koelling-Harmon Dispersion off
REM Cut-off 340.0000 eV Grid scale 1.7500 Gmax 16.5316 1/A FBSC none
REM MP grid 4 4 4 Offset 0.000 0.000 0.000 No. kpts 20 Spacing 0.07
REM Total runtime: 2020.6 s
REM Overall efficiency: 90.7143 %
REM
REM
REM
REM compiler GCC version 4.9.2
REM options -cpp -iprefix /lustre/shared/ucl/apps/gcc/4.9.2/bin/../lib/gcc/x86_64-unknown-linux-gnu/4.9.2/ -mtune=corei7 -march=x86-64 -g -Og
REM COMMAND_LINE
REM seed -1209974982 476999274 -1033858357 810673134 931959461 1022522346 -242279143 -906268722 -124596056 319177159 -1764872457 -1311670857
REM
REM S 3|1.8|5|6|7|30:31:32(qc=5)
REM O 2|1.5|12|13|15|20:21(qc=5)
REM Li 1|1.3|8|9|10|10U:20(qc=5)
REM Fe 3|2.2|2.0|1.0|8|9|10|40:41:32(qc=5)
REM Fe d:4.0 
REM
CELL 1.54180    6.13864    6.13864    6.32155   71.36150   71.36150  122.64010
LATT -1
SFAC Li O  S  Fe 
Li     1 -0.4225710000000  0.1733340000000  0.2972580000000 1.0   0.01
Li     1  0.1733340000000 -0.4225710000000  0.2972580000000 1.0   0.01
Li     1  0.2056170000000  0.4329850000000 -0.2662610000000 1.0  -0.02
Li     1  0.4329850000000  0.2056170000000 -0.2662610000000 1.0  -0.02
Li     1 -0.1355920000000 -0.1355920000000 -0.3429010000000 1.0   0.01
O      2  0.4818020000000 -0.2026420000000  0.3671850000000 1.0   0.23
O      2 -0.2026420000000  0.4818020000000  0.3671850000000 1.0   0.23
O      2  0.0355010000000  0.0355010000000 -0.1933680000000 1.0   0.30
S      3  0.2972750000000  0.2972750000000  0.1041940000000 1.0   0.19
Fe     4 -0.1802300000000 -0.1802300000000  0.1970330000000 1.0   4.04
END
