TITL LFSO-Li2Fe3S3O-201025-183707-a4cc08 0.0565 295.863720 -8.67192609E+003 -23.9997 24.0747 18 (Pc) n - 1
REM
REM Run started: Sun, 25 Oct 2020 22:33:38 +0000 in /lustre/scratch/uccabz1/launch_tmp/launcher_2020-10-25-18-37-05-651621
REM CASTEP 20.1 from code version af48c487+ pr-geom-scf-spinfix Tue Jun 2 15:39:59 2020 +0100
REM Functional Perdew Burke Ernzerhof Relativity Koelling-Harmon Dispersion off
REM Cut-off 340.0000 eV Grid scale 1.7500 Gmax 16.5316 1/A FBSC none
REM MP grid 3 3 3 Offset 0.000 0.000 0.000 No. kpts 10 Spacing 0.07
REM Total runtime: 14605 s
REM Overall efficiency: 75.625 %
REM
REM
REM
REM compiler GCC version 4.9.2
REM options -cpp -iprefix /lustre/shared/ucl/apps/gcc/4.9.2/bin/../lib/gcc/x86_64-unknown-linux-gnu/4.9.2/ -mtune=corei7 -march=x86-64 -g -Og
REM COMMAND_LINE
REM seed -101696095 585046686 1708452207 -2006647533 -1974642297 2013102028 940602361 1602793546 -1484588783 308538085 1567050712 -337159305
REM
REM S 3|1.8|5|6|7|30:31:32(qc=5)
REM O 2|1.5|12|13|15|20:21(qc=5)
REM Li 1|1.3|8|9|10|10U:20(qc=5)
REM Fe 3|2.2|2.0|1.0|8|9|10|40:41:32(qc=5)
REM Fe d:4.0 
REM
CELL 1.54180    6.37279    7.17282    6.82830   90.00000   90.00000  108.57744
LATT -1
SFAC Li O  S  Fe 
Li     1  0.2106250000000  0.0158760000000  0.1649770000000 1.0   0.07
Li     1 -0.2893750000000  0.0158760000000 -0.1649770000000 1.0   0.07
Li     1  0.2824910000000 -0.3529300000000 -0.0570870000000 1.0   0.00
Li     1 -0.2175090000000 -0.3529300000000  0.0570870000000 1.0   0.00
O      2 -0.4775170000000  0.1216650000000 -0.3514980000000 1.0  -0.19
O      2  0.0224830000000  0.1216650000000  0.3514980000000 1.0  -0.19
S      3  0.0579800000000 -0.1271640000000 -0.1804350000000 1.0  -0.16
S      3  0.5579800000000 -0.1271640000000  0.1804350000000 1.0  -0.16
S      3 -0.5067550000000  0.3458160000000  0.1262350000000 1.0  -0.12
S      3 -0.0067550000000  0.3458160000000 -0.1262350000000 1.0  -0.12
S      3 -0.4792800000000 -0.3958150000000 -0.3629330000000 1.0  -0.10
S      3  0.0207200000000 -0.3958150000000  0.3629330000000 1.0  -0.10
Fe     4  0.3248950000000 -0.1426540000000 -0.4504990000000 1.0  -3.83
Fe     4 -0.1751050000000 -0.1426540000000  0.4504990000000 1.0  -3.83
Fe     4  0.2942620000000  0.2099720000000 -0.1869650000000 1.0  -3.82
Fe     4 -0.2057380000000  0.2099720000000  0.1869650000000 1.0  -3.82
Fe     4  0.2641420000000  0.3776040000000 -0.5992070000000 1.0  -3.85
Fe     4 -0.2358580000000  0.3776040000000  0.5992070000000 1.0  -3.85
END
