TITL LFSO-Li6FeSO3-201028-071656-225c93 0.6562 320.974551 -7.35581625E+003 7.63045 8.33565 22 (P21) n - 1
REM
REM Run started: Wed, 28 Oct 2020 21:02:02 +0000 in /scratch/scratch/uccabz1/launch_tmp/launcher_2020-10-28-19-42-08-234997
REM CASTEP 19.11| from code version Version unavailable
REM Functional Perdew Burke Ernzerhof Relativity Koelling-Harmon Dispersion off
REM Cut-off 340.0000 eV Grid scale 1.7500 Gmax 16.5316 1/A FBSC none
REM MP grid 5 3 1 Offset 0.000 0.000 0.000 No. kpts 6 Spacing 0.07
REM Total runtime: 47978.3 s
REM Overall efficiency: 85.7692 %
REM
REM
REM
REM compiler GCC version 4.9.2
REM options -cpp -iprefix /scratch/UCL/applications/gcc/4.9.2/bin/../lib/gcc/x86_64-unknown-linux-gnu/4.9.2/ -mtune=corei7 -march=x86-64 -g -O2
REM COMMAND_LINE
REM seed -1515738691 996433767 -1478331869 586804280 258647536 1403726815 -2079959768 932579733 1523534571 -1193231494 353283308 1440453476
REM
REM S 3|1.8|5|6|7|30:31:32(qc=5)
REM O 2|1.5|12|13|15|20:21(qc=5)
REM Li 1|1.3|8|9|10|10U:20(qc=5)
REM Fe 3|2.2|2.0|1.0|8|9|10|40:41:32(qc=5)
REM Fe d:4.0 
REM
CELL 1.54180    3.07759    7.42036   18.84119  131.75685   90.00000   90.00000
LATT -1
SFAC Li O  S  Fe 
Li     1  0.1854920000000  0.1174240000000  0.2345770000000 1.0  -0.05
Li     1 -0.3145080000000 -0.1174240000000 -0.2345770000000 1.0  -0.05
Li     1 -0.2566770000000 -0.0441050000000 -0.4045560000000 1.0  -0.10
Li     1 -0.7566770000000  0.0441050000000  0.4045560000000 1.0  -0.10
Li     1  0.5822230000000  0.2663670000000  0.1655480000000 1.0  -0.02
Li     1  0.0822230000000 -0.2663670000000 -0.1655480000000 1.0  -0.02
Li     1  0.4759970000000 -0.2587650000000 -0.0130570000000 1.0  -0.03
Li     1 -0.0240030000000  0.2587650000000  0.0130570000000 1.0  -0.03
Li     1  0.5942900000000 -0.4692040000000  0.3267090000000 1.0  -0.00
Li     1  0.0942900000000  0.4692040000000 -0.3267090000000 1.0  -0.00
Li     1  0.5829060000000  0.4333200000000 -0.2047410000000 1.0  -0.01
Li     1  0.0829060000000 -0.4333200000000  0.2047410000000 1.0  -0.01
O      2  0.0943550000000  0.4076620000000  0.2555210000000 1.0  -0.01
O      2  0.5943550000000 -0.4076620000000 -0.2555210000000 1.0  -0.01
O      2  0.5443160000000 -0.5794930000000  0.1103630000000 1.0   0.08
O      2  0.0443160000000  0.5794930000000 -0.1103630000000 1.0   0.08
O      2 -0.3161700000000  0.1616860000000 -0.1009170000000 1.0   0.12
O      2  0.1838300000000 -0.1616860000000  0.1009170000000 1.0   0.12
S      3 -0.2681000000000  0.0042630000000  0.3056910000000 1.0   0.02
S      3  0.2319000000000 -0.0042630000000 -0.3056910000000 1.0   0.02
Fe     4 -0.3093380000000 -0.3035660000000  0.1206240000000 1.0   3.80
Fe     4  0.1906620000000  0.3035660000000 -0.1206240000000 1.0   3.80
END
