TITL LFSO-Li2Fe3S3O-201025-125559-0bda30 -0.3266 337.141929 -8.66984907E+003 -7.99922 23.3897 18 (P-1) n - 1
REM
REM Run started: Tue, 27 Oct 2020 11:56:32 +0000 in /lustre/scratch/uccabz1/launch_tmp/launcher_2020-10-27-09-52-57-691849
REM CASTEP 20.1 from code version af48c487+ pr-geom-scf-spinfix Tue Jun 2 15:39:59 2020 +0100
REM Functional Perdew Burke Ernzerhof Relativity Koelling-Harmon Dispersion off
REM Cut-off 340.0000 eV Grid scale 1.7500 Gmax 16.5316 1/A FBSC none
REM MP grid 3 4 1 Offset 0.000 0.000 0.000 No. kpts 6 Spacing 0.07
REM Total runtime: 119350 s
REM Overall efficiency: 97.2 %
REM
REM
REM
REM compiler GCC version 4.9.2
REM options -cpp -iprefix /lustre/shared/ucl/apps/gcc/4.9.2/bin/../lib/gcc/x86_64-unknown-linux-gnu/4.9.2/ -mtune=corei7 -march=x86-64 -g -Og
REM COMMAND_LINE
REM seed -725824470 -851953839 -407358580 1069560413 710390380 -1867954347 721958613 -1426472807 -863111979 767211542 556294539 1252735622
REM
REM S 3|1.8|5|6|7|30:31:32(qc=5)
REM O 2|1.5|12|13|15|20:21(qc=5)
REM Li 1|1.3|8|9|10|10U:20(qc=5)
REM Fe 3|2.2|2.0|1.0|8|9|10|40:41:32(qc=5)
REM Fe d:4.0 
REM
CELL 1.54180    4.88902    4.12607   16.96757   99.39200   88.55630   87.35210
LATT -1
SFAC Li O  S  Fe 
Li     1 -0.3357760000000  0.2305270000000  0.0147630000000 1.0   0.01
Li     1  0.3357760000000 -0.2305270000000 -0.0147630000000 1.0   0.01
Li     1 -0.1316860000000 -0.4475420000000 -0.0961920000000 1.0  -0.01
Li     1  0.1316860000000  0.4475420000000  0.0961920000000 1.0  -0.01
O      2  0.0953940000000  0.1769750000000  0.4450110000000 1.0   0.07
O      2 -0.0953940000000 -0.1769750000000 -0.4450110000000 1.0   0.07
S      3 -0.5899550000000  0.3183350000000 -0.3244790000000 1.0  -0.12
S      3  0.5899550000000 -0.3183350000000  0.3244790000000 1.0  -0.12
S      3  0.1681780000000  0.1495910000000  0.2036880000000 1.0  -0.10
S      3 -0.1681780000000 -0.1495910000000 -0.2036880000000 1.0  -0.10
S      3 -0.2730910000000 -0.2378940000000  0.0679810000000 1.0  -0.06
S      3  0.2730910000000  0.2378940000000 -0.0679810000000 1.0  -0.06
Fe     4 -0.3288480000000  0.1403710000000  0.2112760000000 1.0  -3.83
Fe     4  0.3288480000000 -0.1403710000000 -0.2112760000000 1.0  -3.83
Fe     4 -0.1782480000000 -0.1763850000000  0.4429920000000 1.0   3.79
Fe     4  0.1782480000000  0.1763850000000 -0.4429920000000 1.0   3.79
Fe     4 -0.2596740000000 -0.1898970000000 -0.3422030000000 1.0  -3.77
Fe     4  0.2596740000000  0.1898970000000  0.3422030000000 1.0  -3.77
END
