TITL LFSO-Li4Fe2S3O-201026-113528-642edd -0.0143 182.826641 -3.86929408E+003 6.67962 6.83606 10 (Pmm2) n - 1
REM
REM Run started: Mon, 26 Oct 2020 12:28:58 +0000 in /lustre/scratch/uccabz1/launch_tmp/launcher_2020-10-26-11-35-26-783604
REM CASTEP 20.1 from code version af48c487+ pr-geom-scf-spinfix Tue Jun 2 15:39:59 2020 +0100
REM Functional Perdew Burke Ernzerhof Relativity Koelling-Harmon Dispersion off
REM Cut-off 340.0000 eV Grid scale 1.7500 Gmax 16.5316 1/A FBSC none
REM MP grid 3 3 3 Offset 0.000 0.000 0.000 No. kpts 8 Spacing 0.07
REM Total runtime: 3572.25 s
REM Overall efficiency: 76.3636 %
REM
REM
REM
REM compiler GCC version 4.9.2
REM options -cpp -iprefix /lustre/shared/ucl/apps/gcc/4.9.2/bin/../lib/gcc/x86_64-unknown-linux-gnu/4.9.2/ -mtune=corei7 -march=x86-64 -g -Og
REM COMMAND_LINE
REM seed -1081898732 735901707 -593884859 -1996246731 -622372505 1390022438 -1919246608 36247911 1146618008 -1123377598 -1759359164 -910838016
REM
REM S 3|1.8|5|6|7|30:31:32(qc=5)
REM O 2|1.5|12|13|15|20:21(qc=5)
REM Li 1|1.3|8|9|10|10U:20(qc=5)
REM Fe 3|2.2|2.0|1.0|8|9|10|40:41:32(qc=5)
REM Fe d:4.0 
REM
CELL 1.54180    5.42593    4.71457    7.14698   90.00000   90.00000   90.00000
LATT -1
SFAC Li O  S  Fe 
Li     1  0.2847150000000  0.2907160000000 -0.3274790000000 1.0  -0.05
Li     1 -0.2847150000000  0.2907160000000  0.3274790000000 1.0  -0.05
Li     1  0.2847150000000  0.2907160000000  0.3274790000000 1.0  -0.05
Li     1 -0.2847150000000  0.2907160000000 -0.3274790000000 1.0  -0.05
O      2  0.5000000000000  0.3730390000000 -0.5000000000000 1.0   0.01
S      3 -0.5000000000000 -0.2552670000000  0.1524460000000 1.0   0.04
S      3  0.5000000000000 -0.2552670000000 -0.1524460000000 1.0   0.04
S      3  0.0000000000000 -0.0217390000000  0.5000000000000 1.0   0.01
Fe     4 -0.0000000000000 -0.2163250000000  0.1944570000000 1.0   3.39
Fe     4  0.0000000000000 -0.2163250000000 -0.1944570000000 1.0   3.39
END
