TITL LFSO-LiFe3S4O-201028-141106-9d7583 -0.0757 602.873294 -8.87502564E+003 6.00598 21.2219 18 (Amm2) n - 1
REM
REM Run started: Thu, 29 Oct 2020 05:30:30 +0000 in /lustre/scratch/uccabz1/launch_tmp/launcher_2020-10-28-23-20-27-737415
REM CASTEP 20.1 from code version af48c487+ pr-geom-scf-spinfix Tue Jun 2 15:39:59 2020 +0100
REM Functional Perdew Burke Ernzerhof Relativity Koelling-Harmon Dispersion off
REM Cut-off 340.0000 eV Grid scale 1.7500 Gmax 16.5316 1/A FBSC none
REM MP grid 2 3 3 Offset 0.000 0.000 0.000 No. kpts 4 Spacing 0.07
REM Total runtime: 51307 s
REM Overall efficiency: 78.1818 %
REM
REM
REM
REM compiler GCC version 4.9.2
REM options -cpp -iprefix /lustre/shared/ucl/apps/gcc/4.9.2/bin/../lib/gcc/x86_64-unknown-linux-gnu/4.9.2/ -mtune=corei7 -march=x86-64 -g -Og
REM COMMAND_LINE
REM seed -582412893 606872067 338975791 -1356205281 -759349309 1167050521 -1676510720 -99773589 -224269781 1564285579 -1501925312 -712426724
REM
REM S 3|1.8|5|6|7|30:31:32(qc=5)
REM O 2|1.5|12|13|15|20:21(qc=5)
REM Li 1|1.3|8|9|10|10U:20(qc=5)
REM Fe 3|2.2|2.0|1.0|8|9|10|40:41:32(qc=5)
REM Fe d:4.0 
REM
CELL 1.54180    7.71696   11.62688   11.62688  144.69698   90.00000   90.00000
LATT -1
SFAC Li O  S  Fe 
Li     1  0.0000000000000 -0.0278610000000 -0.3189890000000 1.0  -0.03
Li     1  0.0000000000000 -0.3189890000000 -0.0278610000000 1.0  -0.03
O      2  0.0000000000000  0.4824460000000 -0.0831060000000 1.0   0.13
O      2  0.0000000000000 -0.0831060000000  0.4824460000000 1.0   0.13
S      3 -0.2593050000000  0.5668490000000  0.1942040000000 1.0  -0.10
S      3  0.2593050000000  0.1942040000000  0.5668490000000 1.0  -0.10
S      3 -0.2593050000000  0.1942040000000  0.5668490000000 1.0  -0.10
S      3  0.2593050000000  0.5668490000000  0.1942040000000 1.0  -0.10
S      3  0.2954500000000  0.1236500000000 -0.1789550000000 1.0  -0.17
S      3 -0.2954500000000 -0.1789550000000  0.1236500000000 1.0  -0.17
S      3  0.2954500000000 -0.1789550000000  0.1236500000000 1.0  -0.17
S      3 -0.2954500000000  0.1236500000000 -0.1789550000000 1.0  -0.17
Fe     4 -0.1861480000000 -0.1339250000000  0.3402650000000 1.0   3.27
Fe     4  0.1861480000000  0.3402650000000 -0.1339250000000 1.0   3.27
Fe     4 -0.1861480000000  0.3402650000000 -0.1339250000000 1.0   3.27
Fe     4  0.1861480000000 -0.1339250000000  0.3402650000000 1.0   3.27
Fe     4 -0.5000000000000  0.0338640000000  0.3598290000000 1.0  -3.09
Fe     4 -0.5000000000000  0.3598290000000  0.0338640000000 1.0  -3.09
END
