TITL LFSO-Li2Fe3S3O-201025-183219-595510 -0.0434 191.237937 -4.33525184E+003 12.0000 12.0953 9 (Pm) n - 1
REM
REM Run started: Sun, 25 Oct 2020 19:36:32 +0000 in /lustre/scratch/uccabz1/launch_tmp/launcher_2020-10-25-18-32-17-674342
REM CASTEP 20.1 from code version af48c487+ pr-geom-scf-spinfix Tue Jun 2 15:39:59 2020 +0100
REM Functional Perdew Burke Ernzerhof Relativity Koelling-Harmon Dispersion off
REM Cut-off 340.0000 eV Grid scale 1.7500 Gmax 16.5316 1/A FBSC none
REM MP grid 4 4 2 Offset 0.000 0.000 0.000 No. kpts 8 Spacing 0.07
REM Total runtime: 3950.76 s
REM Overall efficiency: 75 %
REM
REM
REM
REM compiler GCC version 4.9.2
REM options -cpp -iprefix /lustre/shared/ucl/apps/gcc/4.9.2/bin/../lib/gcc/x86_64-unknown-linux-gnu/4.9.2/ -mtune=corei7 -march=x86-64 -g -Og
REM COMMAND_LINE
REM seed -1224928948 -1354596973 -98756400 -1682832040 255063899 -1725253581 -1153613502 -274093033 -1208842154 1130840104 1422307026 1090548725
REM
REM S 3|1.8|5|6|7|30:31:32(qc=5)
REM O 2|1.5|12|13|15|20:21(qc=5)
REM Li 1|1.3|8|9|10|10U:20(qc=5)
REM Fe 3|2.2|2.0|1.0|8|9|10|40:41:32(qc=5)
REM Fe d:4.0 
REM
CELL 1.54180    6.48297    6.53449    7.41057   90.00000   90.00000  142.47070
LATT -1
SFAC Li O  S  Fe 
Li     1 -0.2998090000000 -0.0134280000000  0.1686590000000 1.0  -0.03
Li     1 -0.2998090000000 -0.0134280000000 -0.1686590000000 1.0  -0.03
O      2 -0.1629420000000 -0.1455500000000  0.0000000000000 1.0   0.16
S      3  0.1098480000000  0.5715530000000  0.2263730000000 1.0   0.10
S      3  0.1098480000000  0.5715530000000 -0.2263730000000 1.0   0.10
S      3 -0.1716110000000 -0.1274360000000 -0.5000000000000 1.0   0.09
Fe     4 -0.0726110000000 -0.2341630000000 -0.2197030000000 1.0   3.86
Fe     4 -0.0726110000000 -0.2341630000000  0.2197030000000 1.0   3.86
Fe     4  0.2112420000000 -0.5188200000000 -0.5000000000000 1.0   3.89
END
