TITL LFSO-Li5FeSO3-201026-214850-8a0d9d -0.0002 328.313516 -6.95615625E+003 9.99900 10.0723 20 (Pba2) n - 1
REM
REM Run started: Mon, 26 Oct 2020 22:05:48 +0000 in /lustre/scratch/uccabz1/launch_tmp/launcher_2020-10-26-21-48-49-175887
REM CASTEP 20.1 from code version af48c487+ pr-geom-scf-spinfix Tue Jun 2 15:39:59 2020 +0100
REM Functional Perdew Burke Ernzerhof Relativity Koelling-Harmon Dispersion off
REM Cut-off 340.0000 eV Grid scale 1.7500 Gmax 16.5316 1/A FBSC none
REM MP grid 5 2 2 Offset 0.000 0.000 0.000 No. kpts 3 Spacing 0.07
REM Total runtime: 1358.38 s
REM Overall efficiency: 71.3333 %
REM
REM
REM
REM compiler GCC version 4.9.2
REM options -cpp -iprefix /lustre/shared/ucl/apps/gcc/4.9.2/bin/../lib/gcc/x86_64-unknown-linux-gnu/4.9.2/ -mtune=corei7 -march=x86-64 -g -Og
REM COMMAND_LINE
REM seed 926889326 2038718223 -1407009170 -188731078 -1556544657 -234780781 -1404428836 220947449 2139362952 -496872266 2040965132 -293312342
REM
REM S 3|1.8|5|6|7|30:31:32(qc=5)
REM O 2|1.5|12|13|15|20:21(qc=5)
REM Li 1|1.3|8|9|10|10U:20(qc=5)
REM Fe 3|2.2|2.0|1.0|8|9|10|40:41:32(qc=5)
REM Fe d:4.0 
REM
CELL 1.54180    3.51878    8.61153   10.83469   90.00000   90.00000   90.00000
LATT -1
SFAC Li O  S  Fe 
Li     1  0.2629240000000  0.0320960000000  0.0878060000000 1.0   0.02
Li     1 -0.2629240000000  0.0320960000000 -0.0878060000000 1.0   0.02
Li     1 -0.2370760000000  0.0320960000000  0.4121940000000 1.0   0.02
Li     1  0.2370760000000  0.0320960000000 -0.4121940000000 1.0   0.02
Li     1  0.4818360000000 -0.3860790000000  0.3206570000000 1.0  -0.02
Li     1 -0.4818360000000 -0.3860790000000 -0.3206570000000 1.0  -0.02
Li     1 -0.0181640000000 -0.3860790000000  0.1793430000000 1.0  -0.02
Li     1  0.0181640000000 -0.3860790000000 -0.1793430000000 1.0  -0.02
Li     1 -0.5000000000000 -0.2370590000000 -0.0000000000000 1.0  -0.01
Li     1 -0.0000000000000 -0.2370590000000 -0.5000000000000 1.0  -0.01
O      2 -0.0160280000000 -0.4061200000000  0.3675940000000 1.0   0.31
O      2  0.0160280000000 -0.4061200000000 -0.3675940000000 1.0   0.31
O      2  0.4839720000000 -0.4061200000000  0.1324060000000 1.0   0.31
O      2 -0.4839720000000 -0.4061200000000 -0.1324060000000 1.0   0.31
O      2 -0.0000000000000 -0.1057430000000 -0.0000000000000 1.0   0.04
O      2  0.5000000000000 -0.1057430000000 -0.5000000000000 1.0   0.04
S      3 -0.0000000000000  0.2710110000000 -0.0000000000000 1.0   0.31
S      3 -0.5000000000000  0.2710110000000 -0.5000000000000 1.0   0.31
Fe     4 -0.5000000000000  0.4530920000000 -0.0000000000000 1.0   4.03
Fe     4 -0.0000000000000  0.4530920000000 -0.5000000000000 1.0   4.03
END
