TITL LFSO-Li2FeSO-201024-151443-1c25fc -0.0256 140.640001 -4.00712387E+003 7.99944 8.10199 10 (Fdd2) n - 1
REM
REM Run started: Sat, 24 Oct 2020 16:05:48 +0100 in /lustre/scratch/uccabz1/launch_tmp/launcher_2020-10-24-14-14-41-716770
REM CASTEP 20.1 from code version af48c487+ pr-geom-scf-spinfix Tue Jun 2 15:39:59 2020 +0100
REM Functional Perdew Burke Ernzerhof Relativity Koelling-Harmon Dispersion off
REM Cut-off 340.0000 eV Grid scale 1.7500 Gmax 16.5316 1/A FBSC none
REM MP grid 3 3 4 Offset 0.000 0.000 0.000 No. kpts 12 Spacing 0.07
REM Total runtime: 3864.14 s
REM Overall efficiency: 91.1667 %
REM
REM
REM
REM compiler GCC version 4.9.2
REM options -cpp -iprefix /lustre/shared/ucl/apps/gcc/4.9.2/bin/../lib/gcc/x86_64-unknown-linux-gnu/4.9.2/ -mtune=corei7 -march=x86-64 -g -Og
REM COMMAND_LINE
REM seed -7233398 1127769131 2039947976 -2104346109 3122356 487070997 -1959778527 -363510912 1577771435 155331279 -630154762 1319912659
REM
REM S 3|1.8|5|6|7|30:31:32(qc=5)
REM O 2|1.5|12|13|15|20:21(qc=5)
REM Li 1|1.3|8|9|10|10U:20(qc=5)
REM Fe 3|2.2|2.0|1.0|8|9|10|40:41:32(qc=5)
REM Fe d:4.0 
REM
CELL 1.54180    5.64204    5.64204    5.99458  119.00076  119.00076   88.26763
LATT -1
SFAC Li O  S  Fe 
Li     1  0.0841350000000 -0.3533920000000 -0.2135300000000 1.0  -0.04
Li     1 -0.1398620000000  0.2976660000000  0.2135300000000 1.0  -0.04
Li     1  0.3966080000000  0.3341350000000  0.2864700000000 1.0  -0.04
Li     1  0.0476660000000  0.1101380000000 -0.2864700000000 1.0  -0.04
O      2 -0.0029720000000 -0.0029720000000  0.0000000000000 1.0   0.14
O      2 -0.2529720000000  0.2470280000000  0.5000000000000 1.0   0.14
S      3  0.4745890000000  0.4745890000000  0.0000000000000 1.0   0.10
S      3  0.2245890000000 -0.2754110000000 -0.5000000000000 1.0   0.10
Fe     4  0.5099750000000  0.0099750000000  0.5000000000000 1.0   3.84
Fe     4 -0.2400250000000 -0.2400250000000  0.0000000000000 1.0   3.84
END
