TITL LFSO-Li2Fe3S3O-201025-100706-07d4bd 0.1799 163.028757 -4.33629748E+003 12.0000 12.1815 9 (C2) n - 1
REM
REM Run started: Sun, 25 Oct 2020 19:37:41 +0000 in /lustre/scratch/uccabz1/launch_tmp/launcher_2020-10-25-10-07-05-194360
REM CASTEP 20.1 from code version af48c487+ pr-geom-scf-spinfix Tue Jun 2 15:39:59 2020 +0100
REM Functional Perdew Burke Ernzerhof Relativity Koelling-Harmon Dispersion off
REM Cut-off 340.0000 eV Grid scale 1.7500 Gmax 16.5316 1/A FBSC none
REM MP grid 5 5 4 Offset 0.000 0.000 0.000 No. kpts 30 Spacing 0.07
REM Total runtime: 41164.1 s
REM Overall efficiency: 89.8333 %
REM
REM
REM
REM compiler GCC version 4.9.2
REM options -cpp -iprefix /lustre/shared/ucl/apps/gcc/4.9.2/bin/../lib/gcc/x86_64-unknown-linux-gnu/4.9.2/ -mtune=corei7 -march=x86-64 -g -Og
REM COMMAND_LINE
REM seed -692821528 -141146725 -1602532083 579115613 205214448 -1236066001 -1235757396 2143929425 -2122386678 440867808 -1726770834 -559749109
REM
REM S 3|1.8|5|6|7|30:31:32(qc=5)
REM O 2|1.5|12|13|15|20:21(qc=5)
REM Li 1|1.3|8|9|10|10U:20(qc=5)
REM Fe 3|2.2|2.0|1.0|8|9|10|40:41:32(qc=5)
REM Fe d:4.0 
REM
CELL 1.54180    7.01781    7.01781   13.26141  144.44375  144.44375   64.29442
LATT -1
SFAC Li O  S  Fe 
Li     1  0.6391600000000 -0.0665790000000 -0.0735570000000 1.0  -0.10
Li     1  0.0665790000000 -0.6391600000000  0.0735570000000 1.0  -0.10
O      2 -0.1334940000000  0.1334940000000  0.5000000000000 1.0   0.20
S      3  0.1211980000000 -0.0683360000000 -0.2072200000000 1.0   0.15
S      3  0.0683360000000 -0.1211980000000  0.2072200000000 1.0   0.15
S      3  0.2952790000000 -0.2952790000000 -0.5000000000000 1.0   0.09
Fe     4  0.2859140000000  0.2537480000000 -0.3698250000000 1.0   3.88
Fe     4 -0.2537480000000 -0.2859140000000  0.3698250000000 1.0   3.88
Fe     4 -0.3891450000000  0.3891450000000  0.5000000000000 1.0   3.84
END
