TITL LFSO-Li6FeS3O-201027-163627-2f4d8e 0.0409 493.652489 -6.81993434E+003 8.00000 8.32543 22 (Ama2) n - 1
REM
REM Run started: Tue, 27 Oct 2020 23:59:49 +0000 in /scratch/scratch/uccabz1/launch_tmp/launcher_2020-10-27-16-36-25-737483
REM CASTEP 19.11| from code version Version unavailable
REM Functional Perdew Burke Ernzerhof Relativity Koelling-Harmon Dispersion off
REM Cut-off 340.0000 eV Grid scale 1.7500 Gmax 16.5316 1/A FBSC none
REM MP grid 3 3 2 Offset 0.000 0.000 0.000 No. kpts 4 Spacing 0.07
REM Total runtime: 29067.6 s
REM Overall efficiency: 82.75 %
REM
REM
REM
REM compiler GCC version 4.9.2
REM options -cpp -iprefix /scratch/UCL/applications/gcc/4.9.2/bin/../lib/gcc/x86_64-unknown-linux-gnu/4.9.2/ -mtune=corei7 -march=x86-64 -g -O2
REM COMMAND_LINE
REM seed 606415481 15082057 1045608885 -1315962878 -1716691476 1437809062 492563622 -1648482556 2108933093 -33711619 1119292265 933401459
REM
REM S 3|1.8|5|6|7|30:31:32(qc=5)
REM O 2|1.5|12|13|15|20:21(qc=5)
REM Li 1|1.3|8|9|10|10U:20(qc=5)
REM Fe 3|2.2|2.0|1.0|8|9|10|40:41:32(qc=5)
REM Fe d:4.0 
REM
CELL 1.54180    7.36183    6.80120   11.72504   90.00000   90.00000  122.76647
LATT -1
SFAC Li O  S  Fe 
Li     1 -0.4463710000000 -0.0543540000000  0.3701180000000 1.0   0.01
Li     1 -0.3920170000000  0.0543540000000 -0.3701180000000 1.0   0.01
Li     1 -0.3920170000000  0.0543540000000 -0.1298820000000 1.0   0.01
Li     1 -0.4463710000000 -0.0543540000000  0.1298820000000 1.0   0.01
Li     1  0.2247000000000 -0.3831880000000 -0.4632320000000 1.0   0.02
Li     1 -0.3921120000000  0.3831880000000  0.4632320000000 1.0   0.02
Li     1 -0.3921120000000  0.3831880000000  0.0367680000000 1.0   0.02
Li     1  0.2247000000000 -0.3831880000000 -0.0367680000000 1.0   0.02
Li     1  0.0183970000000 -0.2443740000000  0.0923230000000 1.0  -0.05
Li     1  0.2627710000000  0.2443740000000 -0.0923230000000 1.0  -0.05
Li     1  0.2627710000000  0.2443740000000 -0.4076770000000 1.0  -0.05
Li     1  0.0183970000000 -0.2443740000000  0.4076770000000 1.0  -0.05
O      2  0.4303670000000 -0.2517680000000  0.2500000000000 1.0   0.17
O      2 -0.3178640000000  0.2517680000000 -0.2500000000000 1.0   0.17
S      3 -0.0807730000000  0.3617620000000  0.0831650000000 1.0   0.05
S      3 -0.4425350000000 -0.3617620000000 -0.0831650000000 1.0   0.05
S      3 -0.4425350000000 -0.3617620000000 -0.4168350000000 1.0   0.05
S      3 -0.0807730000000  0.3617620000000  0.4168350000000 1.0   0.05
S      3  0.3257820000000  0.0000000000000  0.0000000000000 1.0   0.01
S      3  0.3257820000000  0.0000000000000  0.5000000000000 1.0   0.01
Fe     4  0.1419990000000  0.5099820000000  0.2500000000000 1.0   3.76
Fe     4 -0.3679830000000 -0.5099820000000 -0.2500000000000 1.0   3.76
END
