TITL LFSO-Li4Fe3S4O-201030-020656-fd2f00 -0.0432 278.151658 -5.03800096E+003 11.9999 12.1157 12 (P2/m) n - 1
REM
REM Run started: Fri, 30 Oct 2020 03:39:29 +0000 in /lustre/scratch/uccabz1/launch_tmp/launcher_2020-10-30-02-06-54-826502
REM CASTEP 20.1 from code version af48c487+ pr-geom-scf-spinfix Tue Jun 2 15:39:59 2020 +0100
REM Functional Perdew Burke Ernzerhof Relativity Koelling-Harmon Dispersion off
REM Cut-off 340.0000 eV Grid scale 1.7500 Gmax 16.5316 1/A FBSC none
REM MP grid 5 2 2 Offset 0.000 0.000 0.000 No. kpts 5 Spacing 0.07
REM Total runtime: 5730.39 s
REM Overall efficiency: 80.8571 %
REM
REM
REM
REM compiler GCC version 4.9.2
REM options -cpp -iprefix /lustre/shared/ucl/apps/gcc/4.9.2/bin/../lib/gcc/x86_64-unknown-linux-gnu/4.9.2/ -mtune=corei7 -march=x86-64 -g -Og
REM COMMAND_LINE
REM seed 1315233416 -1465812156 -608470620 606147083 1233966621 -604443794 1421936690 2088930215 -746716518 662971806 -1991462734 949889764
REM
REM S 3|1.8|5|6|7|30:31:32(qc=5)
REM O 2|1.5|12|13|15|20:21(qc=5)
REM Li 1|1.3|8|9|10|10U:20(qc=5)
REM Fe 3|2.2|2.0|1.0|8|9|10|40:41:32(qc=5)
REM Fe d:4.0 
REM
CELL 1.54180    3.56309    8.25104    9.46568   90.00000   90.00000   88.23515
LATT -1
SFAC Li O  S  Fe 
Li     1 -0.2221930000000  0.3747100000000  0.1381840000000 1.0   0.02
Li     1  0.2221930000000 -0.3747100000000  0.1381840000000 1.0   0.02
Li     1  0.2221930000000 -0.3747100000000 -0.1381840000000 1.0   0.02
Li     1 -0.2221930000000  0.3747100000000 -0.1381840000000 1.0   0.02
O      2  0.0000000000000  0.5000000000000  0.0000000000000 1.0   0.02
S      3 -0.1754840000000 -0.2727150000000 -0.3282010000000 1.0   0.22
S      3  0.1754840000000  0.2727150000000 -0.3282010000000 1.0   0.22
S      3  0.1754840000000  0.2727150000000  0.3282010000000 1.0   0.22
S      3 -0.1754840000000 -0.2727150000000  0.3282010000000 1.0   0.22
Fe     4 -0.3275960000000  0.2011880000000 -0.5000000000000 1.0   3.68
Fe     4  0.3275960000000 -0.2011880000000 -0.5000000000000 1.0   3.68
Fe     4  0.0000000000000 -0.5000000000000 -0.5000000000000 1.0   3.64
END
