TITL LFSO-Li2Fe3S2O2-201022-122943-6c9815 0.0332 164.130041 -4.46698874E+003 -9.98671 10.7451 9 (Pmm2) n - 1
REM
REM Run started: Thu, 22 Oct 2020 13:24:38 +0100 in /lustre/scratch/uccabz1/launch_tmp/launcher_2020-10-22-11-29-41-488973
REM CASTEP 20.1 from code version af48c487+ pr-geom-scf-spinfix Tue Jun 2 15:39:59 2020 +0100
REM Functional Perdew Burke Ernzerhof Relativity Koelling-Harmon Dispersion off
REM Cut-off 340.0000 eV Grid scale 1.7500 Gmax 16.5316 1/A FBSC none
REM MP grid 3 3 3 Offset 0.000 0.000 0.000 No. kpts 8 Spacing 0.07
REM Total runtime: 4106.45 s
REM Overall efficiency: 94 %
REM
REM
REM
REM compiler GCC version 4.9.2
REM options -cpp -iprefix /lustre/shared/ucl/apps/gcc/4.9.2/bin/../lib/gcc/x86_64-unknown-linux-gnu/4.9.2/ -mtune=corei7 -march=x86-64 -g -Og
REM COMMAND_LINE
REM seed -1644686542 -985781712 1131318214 271022201 -304377279 329383735 650521953 1310899892 -2146085045 -2073280733 1799255653 56905157
REM
REM S 3|1.8|5|6|7|30:31:32(qc=5)
REM O 2|1.5|12|13|15|20:21(qc=5)
REM Li 1|1.3|8|9|10|10U:20(qc=5)
REM Fe 3|2.2|2.0|1.0|8|9|10|40:41:32(qc=5)
REM Fe d:4.0 
REM
CELL 1.54180    5.08756    6.24866    5.16288   90.00000   90.00000   90.00000
LATT -1
SFAC Li O  S  Fe 
Li     1  0.2356740000000  0.0000000000000 -0.2139890000000 1.0   0.05
Li     1 -0.2356740000000 -0.0000000000000 -0.2139890000000 1.0   0.05
O      2  0.0000000000000 -0.1987430000000 -0.4758750000000 1.0  -0.08
O      2  0.0000000000000  0.1987430000000 -0.4758750000000 1.0  -0.08
S      3 -0.5000000000000  0.2512960000000  0.0987850000000 1.0   0.12
S      3 -0.5000000000000 -0.2512960000000  0.0987850000000 1.0   0.12
Fe     4 -0.2498550000000  0.0000000000000  0.3107340000000 1.0  -3.11
Fe     4  0.2498550000000  0.0000000000000  0.3107340000000 1.0  -3.11
Fe     4  0.0000000000000 -0.5000000000000  0.4719880000000 1.0  -3.92
END
