TITL LFSO-Li5FeSO3-201027-022832-e7d5a1 -0.0204 292.924328 -6.95826180E+003 10.0000 10.0763 20 (R3) n - 1
REM
REM Run started: Tue, 27 Oct 2020 03:40:16 +0000 in /scratch/scratch/uccabz1/launch_tmp/launcher_2020-10-27-02-28-31-118509
REM CASTEP 19.11| from code version Version unavailable
REM Functional Perdew Burke Ernzerhof Relativity Koelling-Harmon Dispersion off
REM Cut-off 340.0000 eV Grid scale 1.7500 Gmax 16.5316 1/A FBSC none
REM MP grid 3 3 3 Offset 0.000 0.000 0.000 No. kpts 6 Spacing 0.07
REM Total runtime: 4351.53 s
REM Overall efficiency: 67.2222 %
REM
REM
REM
REM compiler GCC version 4.9.2
REM options -cpp -iprefix /scratch/UCL/applications/gcc/4.9.2/bin/../lib/gcc/x86_64-unknown-linux-gnu/4.9.2/ -mtune=corei7 -march=x86-64 -g -O2
REM COMMAND_LINE
REM seed -244075200 1291058797 1666946524 -1668020577 -1698749570 -837830879 486389759 773057401 829859563 20418200 1226600500 -44564845
REM
REM S 3|1.8|5|6|7|30:31:32(qc=5)
REM O 2|1.5|12|13|15|20:21(qc=5)
REM Li 1|1.3|8|9|10|10U:20(qc=5)
REM Fe 3|2.2|2.0|1.0|8|9|10|40:41:32(qc=5)
REM Fe d:4.0 
REM
CELL 1.54180    6.74329    6.74329    6.74329   79.50799   79.50799   79.50799
LATT -1
SFAC Li O  S  Fe 
Li     1 -0.0738750000000 -0.2697130000000  0.3725470000000 1.0  -0.02
Li     1  0.3725470000000 -0.0738750000000 -0.2697130000000 1.0  -0.02
Li     1 -0.2697130000000  0.3725470000000 -0.0738750000000 1.0  -0.02
Li     1  0.2650030000000 -0.2949250000000 -0.4819410000000 1.0   0.02
Li     1 -0.4819410000000  0.2650030000000 -0.2949250000000 1.0   0.02
Li     1 -0.2949250000000 -0.4819410000000  0.2650030000000 1.0   0.02
Li     1  0.0404190000000  0.1222050000000 -0.4032710000000 1.0  -0.03
Li     1 -0.4032710000000  0.0404190000000  0.1222050000000 1.0  -0.03
Li     1  0.1222050000000 -0.4032710000000  0.0404190000000 1.0  -0.03
Li     1 -0.2026710000000 -0.2026710000000 -0.2026710000000 1.0   0.00
O      2  0.1175410000000 -0.1800610000000 -0.2329780000000 1.0   0.28
O      2 -0.2329780000000  0.1175410000000 -0.1800610000000 1.0   0.28
O      2 -0.1800610000000 -0.2329780000000  0.1175410000000 1.0   0.28
O      2  0.3105360000000  0.1899500000000 -0.4022130000000 1.0   0.29
O      2 -0.4022130000000  0.3105360000000  0.1899500000000 1.0   0.29
O      2  0.1899500000000 -0.4022130000000  0.3105360000000 1.0   0.29
S      3  0.1483270000000  0.1483270000000  0.1483270000000 1.0   0.23
S      3 -0.3741330000000 -0.3741330000000 -0.3741330000000 1.0   0.03
Fe     4 -0.0241800000000 -0.0241800000000 -0.0241800000000 1.0   4.07
Fe     4  0.3305620000000  0.3305620000000  0.3305620000000 1.0   4.07
END
