TITL LFSO-Li5FeSO3-201026-182117-b8d271 -0.1106 130.796569 -3.47851520E+003 3.82699 4.13878 10 (P-1) n - 1
REM
REM Run started: Mon, 26 Oct 2020 22:51:41 +0000 in /scratch/scratch/uccabz1/launch_tmp/launcher_2020-10-26-22-32-26-563075
REM CASTEP 19.11| from code version Version unavailable
REM Functional Perdew Burke Ernzerhof Relativity Koelling-Harmon Dispersion off
REM Cut-off 340.0000 eV Grid scale 1.7500 Gmax 16.5316 1/A FBSC none
REM MP grid 8 4 7 Offset 0.000 0.000 0.000 No. kpts 112 Spacing 0.07
REM Total runtime: 13891.6 s
REM Overall efficiency: 86 %
REM
REM
REM
REM compiler GCC version 4.9.2
REM options -cpp -iprefix /scratch/UCL/applications/gcc/4.9.2/bin/../lib/gcc/x86_64-unknown-linux-gnu/4.9.2/ -mtune=corei7 -march=x86-64 -g -O2
REM COMMAND_LINE
REM seed 1500984022 1256979155 -1321270013 -1424775439 2047296495 -1117442866 -1399767915 766188334 1320841713 2081851111 286809946 1183742791
REM
REM S 3|1.8|5|6|7|30:31:32(qc=5)
REM O 2|1.5|12|13|15|20:21(qc=5)
REM Li 1|1.3|8|9|10|10U:20(qc=5)
REM Fe 3|2.2|2.0|1.0|8|9|10|40:41:32(qc=5)
REM Fe d:4.0 
REM
CELL 1.54180    6.23204   10.70334    6.88255  115.75463  121.62215  118.96204
LATT -1
SFAC Li O  S  Fe 
Li     1  0.4403640000000  0.1784800000000  0.2240450000000 1.0  -0.01
Li     1 -0.4403640000000 -0.1784800000000 -0.2240450000000 1.0  -0.01
Li     1  0.8221670000000 -0.4035940000000  0.5614190000000 1.0  -0.04
Li     1 -0.8221670000000  0.4035940000000 -0.5614190000000 1.0  -0.04
Li     1 -1.0000000000000  0.0000000000000 -0.5000000000000 1.0  -0.05
O      2  0.0294490000000 -0.1314560000000  0.0218200000000 1.0   0.07
O      2 -0.0294490000000  0.1314560000000 -0.0218200000000 1.0   0.07
O      2  0.0000000000000 -0.5000000000000  0.5000000000000 1.0   0.21
S      3  0.5000000000000  0.5000000000000  0.0000000000000 1.0   0.04
Fe     4 -0.5000000000000  0.0000000000000 -0.5000000000000 1.0   3.58
END
