TITL LFSO-Li2Fe3S3O-201026-161300-42cc2c -0.0202 395.598526 -8.66969993E+003 24.0000 24.1500 18 (R3) n - 1
REM
REM Run started: Wed, 28 Oct 2020 05:06:01 +0000 in /scratch/scratch/uccabz1/launch_tmp/launcher_2020-10-27-23-09-58-636989
REM CASTEP 19.11| from code version Version unavailable
REM Functional Perdew Burke Ernzerhof Relativity Koelling-Harmon Dispersion off
REM Cut-off 340.0000 eV Grid scale 1.7500 Gmax 16.5316 1/A FBSC none
REM MP grid 3 3 3 Offset 0.000 0.000 0.000 No. kpts 6 Spacing 0.07
REM Total runtime: 45103.9 s
REM Overall efficiency: 98.1667 %
REM
REM
REM
REM compiler GCC version 4.9.2
REM options -cpp -iprefix /lustre/shared/ucl/apps/gcc/4.9.2/bin/../lib/gcc/x86_64-unknown-linux-gnu/4.9.2/ -mtune=corei7 -march=x86-64 -g -Og
REM COMMAND_LINE
REM seed -709036603 -1873918563 -154414513 339474133 -213441584 1868175551 -1538616774 782722273 285749780 1496641993 136746256 1595051527
REM
REM S 3|1.8|5|6|7|30:31:32(qc=5)
REM O 2|1.5|12|13|15|20:21(qc=5)
REM Li 1|1.3|8|9|10|10U:20(qc=5)
REM Fe 3|2.2|2.0|1.0|8|9|10|40:41:32(qc=5)
REM Fe d:4.0 
REM
CELL 1.54180    7.74246    7.74246    7.74246   69.88351   69.88351   69.88351
LATT -1
SFAC Li O  S  Fe 
Li     1 -0.2651330000000  0.0406610000000 -0.3194100000000 1.0  -0.04
Li     1  0.0406610000000 -0.3194100000000 -0.2651330000000 1.0  -0.04
Li     1 -0.3194100000000 -0.2651330000000  0.0406610000000 1.0  -0.04
Li     1  0.4685460000000  0.4685460000000  0.4685460000000 1.0  -0.00
O      2  0.2089230000000  0.2089230000000  0.2089230000000 1.0   0.24
O      2 -0.2403120000000 -0.2403120000000 -0.2403120000000 1.0   0.16
S      3  0.3218570000000 -0.3674790000000 -0.1356700000000 1.0   0.16
S      3 -0.3674790000000 -0.1356700000000  0.3218570000000 1.0   0.16
S      3 -0.1356700000000  0.3218570000000 -0.3674790000000 1.0   0.16
S      3  0.4054120000000  0.1756810000000 -0.3001910000000 1.0   0.13
S      3  0.1756810000000 -0.3001910000000  0.4054120000000 1.0   0.13
S      3 -0.3001910000000  0.4054120000000  0.1756810000000 1.0   0.13
Fe     4 -0.0537040000000  0.3248110000000  0.3112570000000 1.0   3.81
Fe     4  0.3248110000000  0.3112570000000 -0.0537040000000 1.0   3.81
Fe     4  0.3112570000000 -0.0537040000000  0.3248110000000 1.0   3.81
Fe     4 -0.1342480000000 -0.3358620000000  0.4883240000000 1.0   3.81
Fe     4 -0.3358620000000  0.4883240000000 -0.1342480000000 1.0   3.81
Fe     4  0.4883240000000 -0.1342480000000 -0.3358620000000 1.0   3.81
END
