TITL LFSO-Li4Fe3S3O2-201030-034247-2120f2 0.0281 226.157961 -5.17304212E+003 11.9999 12.0879 12 (P4/mmm) n - 1
REM
REM Run started: Fri, 30 Oct 2020 12:26:32 +0000 in /lustre/scratch/uccabz1/launch_tmp/launcher_2020-10-30-03-42-45-686050
REM CASTEP 20.1 from code version af48c487+ pr-geom-scf-spinfix Tue Jun 2 15:39:59 2020 +0100
REM Functional Perdew Burke Ernzerhof Relativity Koelling-Harmon Dispersion off
REM Cut-off 340.0000 eV Grid scale 1.7500 Gmax 16.5316 1/A FBSC none
REM MP grid 4 6 1 Offset 0.000 0.000 0.000 No. kpts 12 Spacing 0.07
REM Total runtime: 23904.9 s
REM Overall efficiency: 88.4286 %
REM
REM
REM
REM compiler GCC version 4.9.2
REM options -cpp -iprefix /lustre/shared/ucl/apps/gcc/4.9.2/bin/../lib/gcc/x86_64-unknown-linux-gnu/4.9.2/ -mtune=corei7 -march=x86-64 -g -Og
REM COMMAND_LINE
REM seed -691161529 562791044 1353675240 -1217454242 -293740908 -372714595 -1845879500 1604380463 1903807460 -1094428636 2022236804 -1574171508
REM
REM S 3|1.8|5|6|7|30:31:32(qc=5)
REM O 2|1.5|12|13|15|20:21(qc=5)
REM Li 1|1.3|8|9|10|10U:20(qc=5)
REM Fe 3|2.2|2.0|1.0|8|9|10|40:41:32(qc=5)
REM Fe d:4.0 
REM
CELL 1.54180    5.31119    3.75990   15.99783   90.00000   90.00000  134.93420
LATT -1
SFAC Li O  S  Fe 
Li     1 -0.4093730000000 -0.3049540000000 -0.2888040000000 1.0  -0.01
Li     1  0.1044190000000 -0.3049540000000  0.2888040000000 1.0  -0.01
Li     1  0.1044190000000 -0.3049540000000 -0.2888040000000 1.0  -0.01
Li     1 -0.4093730000000 -0.3049540000000  0.2888040000000 1.0  -0.01
O      2 -0.3974970000000  0.2050050000000 -0.2911950000000 1.0   0.06
O      2 -0.3974970000000  0.2050050000000  0.2911950000000 1.0   0.06
S      3  0.1022770000000  0.2045530000000  0.1627880000000 1.0   0.14
S      3  0.1022770000000  0.2045530000000 -0.1627880000000 1.0   0.14
S      3 -0.3994540000000  0.2010920000000  0.0000000000000 1.0   0.09
Fe     4  0.6086300000000  0.2172600000000  0.1571150000000 1.0   3.87
Fe     4  0.6086300000000  0.2172600000000 -0.1571150000000 1.0   3.87
Fe     4  0.1039270000000  0.2078530000000  0.0000000000000 1.0   3.82
END
