TITL LFSO-Li2Fe2S2O-201023-224144-da5c8f 0.0173 474.810668 -9.50200180E+003 18.0009 19.8065 21 (P31) n - 1
REM
REM Run started: Sat, 24 Oct 2020 04:22:26 +0100 in /lustre/scratch/uccabz1/launch_tmp/launcher_2020-10-23-21-41-42-923986
REM CASTEP 20.1 from code version af48c487+ pr-geom-scf-spinfix Tue Jun 2 15:39:59 2020 +0100
REM Functional Perdew Burke Ernzerhof Relativity Koelling-Harmon Dispersion off
REM Cut-off 340.0000 eV Grid scale 1.7500 Gmax 16.5316 1/A FBSC none
REM MP grid 4 2 2 Offset 0.000 0.000 0.000 No. kpts 8 Spacing 0.07
REM Total runtime: 22435.4 s
REM Overall efficiency: 77.4444 %
REM
REM
REM
REM compiler GCC version 4.9.2
REM options -cpp -iprefix /lustre/shared/ucl/apps/gcc/4.9.2/bin/../lib/gcc/x86_64-unknown-linux-gnu/4.9.2/ -mtune=corei7 -march=x86-64 -g -Og
REM COMMAND_LINE
REM seed 245248445 -685791295 -2017918119 -2142333080 -563137222 1523120581 566937817 1286605515 2087382684 -402098474 -506485562 -1163607184
REM
REM S 3|1.8|5|6|7|30:31:32(qc=5)
REM O 2|1.5|12|13|15|20:21(qc=5)
REM Li 1|1.3|8|9|10|10U:20(qc=5)
REM Fe 3|2.2|2.0|1.0|8|9|10|40:41:32(qc=5)
REM Fe d:4.0 
REM
CELL 1.54180    4.64852   10.86019   10.86019  120.00000   90.00000   90.00000
LATT -1
SFAC Li O  S  Fe 
Li     1  0.0808910000000  0.2339950000000 -0.4658560000000 1.0  -0.06
Li     1  0.4142240000000  0.4658560000000 -0.3001480000000 1.0  -0.06
Li     1 -0.2524420000000  0.3001480000000 -0.2339950000000 1.0  -0.06
Li     1 -0.3309970000000 -0.0329230000000 -0.5368600000000 1.0  -0.21
Li     1  0.0023360000000  0.5368600000000 -0.4960630000000 1.0  -0.21
Li     1  0.3356700000000  0.4960630000000  0.0329230000000 1.0  -0.21
O      2  0.0317690000000 -0.3701610000000  0.1342640000000 1.0   0.03
O      2  0.3651020000000 -0.1342640000000 -0.5044240000000 1.0   0.03
O      2 -0.3015650000000  0.5044240000000  0.3701610000000 1.0   0.03
S      3  0.2432050000000  0.2775720000000 -0.1876470000000 1.0  -0.00
S      3  0.5765390000000  0.1876470000000  0.4652200000000 1.0  -0.00
S      3 -0.0901280000000 -0.4652200000000 -0.2775720000000 1.0  -0.00
S      3  0.4286090000000 -0.0879510000000 -0.0412510000000 1.0  -0.01
S      3 -0.2380580000000  0.0412510000000 -0.0467000000000 1.0  -0.01
S      3  0.0952750000000  0.0467000000000  0.0879510000000 1.0  -0.01
Fe     4 -0.4945800000000 -0.3161640000000  0.4596270000000 1.0   3.09
Fe     4 -0.1612470000000 -0.4596270000000  0.2242080000000 1.0   3.09
Fe     4  0.1720860000000 -0.2242080000000  0.3161640000000 1.0   3.09
Fe     4  0.2597620000000  0.0448130000000 -0.3404770000000 1.0   3.16
Fe     4 -0.4069050000000  0.3404770000000  0.3852900000000 1.0   3.16
Fe     4 -0.0735720000000 -0.3852900000000 -0.0448130000000 1.0   3.16
END
