TITL LFSO-Li3FeS2O-201025-014210-b66fa5 -0.0348 368.499257 -7.52230303E+003 9.01192 11.3128 21 (P31) n - 1
REM
REM Run started: Sun, 25 Oct 2020 05:39:50 +0000 in /lustre/scratch/uccabz1/launch_tmp/launcher_2020-10-25-00-42-08-678471
REM CASTEP 20.1 from code version af48c487+ pr-geom-scf-spinfix Tue Jun 2 15:39:59 2020 +0100
REM Functional Perdew Burke Ernzerhof Relativity Koelling-Harmon Dispersion off
REM Cut-off 340.0000 eV Grid scale 1.7500 Gmax 16.5316 1/A FBSC none
REM MP grid 2 3 3 Offset 0.000 0.000 0.000 No. kpts 5 Spacing 0.07
REM Total runtime: 19889.6 s
REM Overall efficiency: 75 %
REM
REM
REM
REM compiler GCC version 4.9.2
REM options -cpp -iprefix /lustre/shared/ucl/apps/gcc/4.9.2/bin/../lib/gcc/x86_64-unknown-linux-gnu/4.9.2/ -mtune=corei7 -march=x86-64 -g -Og
REM COMMAND_LINE
REM seed 235391986 538465369 2013299908 2023927942 1581127710 -749547361 -1478827983 198845415 -1606727578 847229663 -1830190859 -676618858
REM
REM S 3|1.8|5|6|7|30:31:32(qc=5)
REM O 2|1.5|12|13|15|20:21(qc=5)
REM Li 1|1.3|8|9|10|10U:20(qc=5)
REM Fe 3|2.2|2.0|1.0|8|9|10|40:41:32(qc=5)
REM Fe d:4.0 
REM
CELL 1.54180    9.51698    6.68657    6.68657  120.00000   90.00000   90.00000
LATT -1
SFAC Li O  S  Fe 
Li     1  0.0326030000000  0.5260210000000  0.0836300000000 1.0  -0.03
Li     1 -0.3007310000000  0.5576090000000 -0.5260210000000 1.0  -0.03
Li     1  0.3659360000000 -0.0836300000000 -0.5576090000000 1.0  -0.03
Li     1 -0.3047240000000  0.1180390000000 -0.0886170000000 1.0  -0.00
Li     1  0.3619430000000 -0.2066570000000 -0.1180390000000 1.0  -0.00
Li     1  0.0286100000000  0.0886170000000  0.2066570000000 1.0  -0.00
Li     1  0.2145400000000  0.1058710000000 -0.1403240000000 1.0   0.02
Li     1 -0.1187930000000 -0.2461950000000 -0.1058710000000 1.0   0.02
Li     1 -0.4521270000000  0.1403240000000  0.2461950000000 1.0   0.02
O      2 -0.3774410000000  0.3627200000000  0.1880240000000 1.0   0.06
O      2  0.2892260000000 -0.1746960000000 -0.3627200000000 1.0   0.06
O      2 -0.0441080000000 -0.1880240000000  0.1746960000000 1.0   0.06
S      3 -0.3407060000000 -0.0708850000000  0.4550010000000 1.0  -0.24
S      3  0.3259600000000 -0.4741150000000  0.0708850000000 1.0  -0.24
S      3 -0.0073730000000 -0.4550010000000  0.4741150000000 1.0  -0.24
S      3 -0.0515900000000  0.1172530000000 -0.1403730000000 1.0  -0.15
S      3 -0.3849230000000 -0.2576260000000 -0.1172530000000 1.0  -0.15
S      3  0.2817440000000  0.1403730000000  0.2576260000000 1.0  -0.15
Fe     4 -0.0891850000000 -0.1176630000000  0.4678810000000 1.0   3.35
Fe     4 -0.4225180000000  0.5855440000000  0.1176630000000 1.0   3.35
Fe     4  0.2441490000000 -0.4678810000000 -0.5855440000000 1.0   3.35
END
