TITL LFSO-Li6FeSO3-201028-055817-bcdc37 0.0351 183.436189 -3.67851031E+003 4.00000 4.21297 11 (R3m) n - 1
REM
REM Run started: Wed, 28 Oct 2020 06:46:03 +0000 in /lustre/scratch/uccabz1/launch_tmp/launcher_2020-10-28-05-58-16-144509
REM CASTEP 20.1 from code version af48c487+ pr-geom-scf-spinfix Tue Jun 2 15:39:59 2020 +0100
REM Functional Perdew Burke Ernzerhof Relativity Koelling-Harmon Dispersion off
REM Cut-off 340.0000 eV Grid scale 1.7500 Gmax 16.5316 1/A FBSC none
REM MP grid 3 3 3 Offset 0.000 0.000 0.000 No. kpts 6 Spacing 0.07
REM Total runtime: 2896.69 s
REM Overall efficiency: 87 %
REM
REM
REM
REM compiler GCC version 4.9.2
REM options -cpp -iprefix /lustre/shared/ucl/apps/gcc/4.9.2/bin/../lib/gcc/x86_64-unknown-linux-gnu/4.9.2/ -mtune=corei7 -march=x86-64 -g -Og
REM COMMAND_LINE
REM seed -705465348 -1595759387 -79496401 -2000913872 -1426978245 -1664609987 209314482 -1328206898 1912349399 -1545860929 414545978 1304432392
REM
REM S 3|1.8|5|6|7|30:31:32(qc=5)
REM O 2|1.5|12|13|15|20:21(qc=5)
REM Li 1|1.3|8|9|10|10U:20(qc=5)
REM Fe 3|2.2|2.0|1.0|8|9|10|40:41:32(qc=5)
REM Fe d:4.0 
REM
CELL 1.54180    6.21256    6.21256    6.55617   61.71910   61.71910   60.00000
LATT -1
SFAC Li O  S  Fe 
Li     1 -0.5533540000000 -0.1092490000000 -0.2275960000000 1.0  -0.01
Li     1 -0.1098010000000 -0.5533540000000 -0.2275960000000 1.0  -0.01
Li     1 -0.1092490000000 -0.1098010000000 -0.2275960000000 1.0  -0.01
Li     1  0.0060930000000  0.0029840000000  0.3653940000000 1.0  -0.02
Li     1 -0.3744710000000  0.0060930000000  0.3653940000000 1.0  -0.02
Li     1  0.0029840000000 -0.3744710000000  0.3653940000000 1.0  -0.02
O      2 -0.3465520000000  0.6537220000000 -0.4218870000000 1.0   0.10
O      2  0.1147160000000 -0.3465520000000 -0.4218870000000 1.0   0.10
O      2  0.6537220000000  0.1147160000000 -0.4218870000000 1.0   0.10
S      3 -0.0024890000000 -0.0024890000000  0.0074660000000 1.0   0.00
Fe     4  0.4726430000000  0.4726430000000 -0.4179300000000 1.0   3.79
END
