TITL LFSO-Li2Fe3S2O2-201024-112156-307d62 0.0663 628.787427 -8.93520144E+003 24.0000 24.3372 18 (P3) n - 1
REM
REM Run started: Sat, 24 Oct 2020 19:34:29 +0100 in /lustre/scratch/uccabz1/launch_tmp/launcher_2020-10-24-10-21-54-941645
REM CASTEP 20.1 from code version af48c487+ pr-geom-scf-spinfix Tue Jun 2 15:39:59 2020 +0100
REM Functional Perdew Burke Ernzerhof Relativity Koelling-Harmon Dispersion off
REM Cut-off 340.0000 eV Grid scale 1.7500 Gmax 16.5316 1/A FBSC none
REM MP grid 3 2 2 Offset 0.000 0.000 0.000 No. kpts 6 Spacing 0.07
REM Total runtime: 30318.6 s
REM Overall efficiency: 78.1538 %
REM
REM
REM
REM compiler GCC version 4.9.2
REM options -cpp -iprefix /lustre/shared/ucl/apps/gcc/4.9.2/bin/../lib/gcc/x86_64-unknown-linux-gnu/4.9.2/ -mtune=corei7 -march=x86-64 -g -Og
REM COMMAND_LINE
REM seed 1579550407 1532512352 2008091108 -265616707 257902326 -1289503916 897447921 686201195 196587022 -1887472831 1948053766 1927946929
REM
REM S 3|1.8|5|6|7|30:31:32(qc=5)
REM O 2|1.5|12|13|15|20:21(qc=5)
REM Li 1|1.3|8|9|10|10U:20(qc=5)
REM Fe 3|2.2|2.0|1.0|8|9|10|40:41:32(qc=5)
REM Fe d:4.0 
REM
CELL 1.54180    6.70492   10.40615   10.40615  120.00000   90.00000   90.00000
LATT -1
SFAC Li O  S  Fe 
Li     1  0.1516960000000  0.0497870000000  0.2653640000000 1.0   0.01
Li     1  0.1516960000000 -0.2653640000000 -0.2155780000000 1.0   0.01
Li     1  0.1516960000000  0.2155780000000 -0.0497870000000 1.0   0.01
Li     1  0.0087610000000  0.0000000000000 -0.0000000000000 1.0  -0.06
O      2 -0.0595750000000 -0.0357010000000  0.1593990000000 1.0   0.23
O      2 -0.0595750000000 -0.1593990000000 -0.1951000000000 1.0   0.23
O      2 -0.0595750000000  0.1951000000000  0.0357010000000 1.0   0.23
O      2  0.3849390000000  0.3333330000000 -0.3333330000000 1.0   0.36
S      3  0.4640490000000 -0.2417350000000 -0.0825600000000 1.0   0.06
S      3  0.4640490000000  0.0825600000000 -0.1591750000000 1.0   0.06
S      3  0.4640490000000  0.1591750000000  0.2417350000000 1.0   0.06
S      3 -0.1835330000000  0.3333330000000 -0.3333330000000 1.0   0.24
Fe     4 -0.3238130000000  0.1897930000000  0.0628060000000 1.0   3.72
Fe     4 -0.3238130000000 -0.0628060000000  0.1269870000000 1.0   3.72
Fe     4 -0.3238130000000 -0.1269870000000 -0.1897930000000 1.0   3.72
Fe     4 -0.4470290000000  0.2130940000000  0.7236200000000 1.0   3.79
Fe     4 -0.4470290000000 -0.7236200000000  0.4894750000000 1.0   3.79
Fe     4 -0.4470290000000 -0.4894750000000 -0.2130940000000 1.0   3.79
END
