TITL LFSO-Li2Fe4S4O-201025-010655-93bf86 -0.1067 323.247895 -5.49963313E+003 13.9999 14.7658 11 (P-1) n - 1
REM
REM Run started: Sun, 25 Oct 2020 09:58:15 +0000 in /lustre/scratch/uccabz1/launch_tmp/launcher_2020-10-25-01-06-52-858448
REM CASTEP 20.1 from code version af48c487+ pr-geom-scf-spinfix Tue Jun 2 15:39:59 2020 +0100
REM Functional Perdew Burke Ernzerhof Relativity Koelling-Harmon Dispersion off
REM Cut-off 340.0000 eV Grid scale 1.7500 Gmax 16.5316 1/A FBSC none
REM MP grid 4 3 2 Offset 0.000 0.000 0.000 No. kpts 12 Spacing 0.07
REM Total runtime: 39056.2 s
REM Overall efficiency: 97.4167 %
REM
REM
REM
REM compiler GCC version 4.9.2
REM options -cpp -iprefix /lustre/shared/ucl/apps/gcc/4.9.2/bin/../lib/gcc/x86_64-unknown-linux-gnu/4.9.2/ -mtune=corei7 -march=x86-64 -g -Og
REM COMMAND_LINE
REM seed 1761188384 -1423700006 1403671557 2134681969 1377667568 -438739231 2046468801 1595176725 1440154501 1465533600 -1594332766 1989696816
REM
REM S 3|1.8|5|6|7|30:31:32(qc=5)
REM O 2|1.5|12|13|15|20:21(qc=5)
REM Li 1|1.3|8|9|10|10U:20(qc=5)
REM Fe 3|2.2|2.0|1.0|8|9|10|40:41:32(qc=5)
REM Fe d:4.0 
REM
CELL 1.54180    6.22957   10.30363   11.98309   43.76581  137.67624  137.28047
LATT -1
SFAC Li O  S  Fe 
Li     1  0.2888070000000 -0.2622210000000 -0.1212230000000 1.0  -0.10
Li     1 -0.2888070000000  0.2622210000000  0.1212230000000 1.0  -0.10
O      2  0.0000000000000  0.5000000000000  0.0000000000000 1.0   0.07
S      3  0.1725370000000 -0.3342600000000 -0.4126370000000 1.0   0.10
S      3 -0.1725370000000  0.3342600000000  0.4126370000000 1.0   0.10
S      3 -0.1384330000000 -0.0276490000000 -0.1136440000000 1.0   0.05
S      3  0.1384330000000  0.0276490000000  0.1136440000000 1.0   0.05
Fe     4  0.0672150000000 -0.3089520000000  0.3316930000000 1.0   3.75
Fe     4 -0.0672150000000  0.3089520000000 -0.3316930000000 1.0   3.75
Fe     4  0.3588880000000 -0.5953350000000  0.1913060000000 1.0   3.17
Fe     4 -0.3588880000000  0.5953350000000 -0.1913060000000 1.0   3.17
END
