TITL LFSO-Li3FeS2O-201025-034154-c31ad2 2.1168 383.465114 -7.51617848E+003 0.996359 6.24671 21 (P32) n - 1
REM
REM Run started: Sun, 25 Oct 2020 12:48:24 +0000 in /scratch/scratch/uccabz1/launch_tmp/launcher_2020-10-25-03-41-51-744575
REM CASTEP 19.11| from code version Version unavailable
REM Functional Perdew Burke Ernzerhof Relativity Koelling-Harmon Dispersion off
REM Cut-off 340.0000 eV Grid scale 1.7500 Gmax 16.5316 1/A FBSC none
REM MP grid 2 3 3 Offset 0.000 0.000 0.000 No. kpts 5 Spacing 0.07
REM Total runtime: 36948.9 s
REM Overall efficiency: 75.4167 %
REM
REM
REM
REM compiler GCC version 4.9.2
REM options -cpp -iprefix /scratch/UCL/applications/gcc/4.9.2/bin/../lib/gcc/x86_64-unknown-linux-gnu/4.9.2/ -mtune=corei7 -march=x86-64 -g -O2
REM COMMAND_LINE
REM seed 139062774 1942091772 785930080 1071381249 861140529 -1245598525 -1239341066 -834322899 -905784778 260035589 1096469940 889885611
REM
REM S 3|1.8|5|6|7|30:31:32(qc=5)
REM O 2|1.5|12|13|15|20:21(qc=5)
REM Li 1|1.3|8|9|10|10U:20(qc=5)
REM Fe 3|2.2|2.0|1.0|8|9|10|40:41:32(qc=5)
REM Fe d:4.0 
REM
CELL 1.54180    8.55941    7.19243    7.19243  120.00000   90.00000   90.00000
LATT -1
SFAC Li O  S  Fe 
Li     1 -0.1227520000000  0.3794940000000 -0.5722600000000 1.0   0.01
Li     1  0.5439140000000  0.5722600000000 -0.0482450000000 1.0   0.01
Li     1  0.2105810000000  0.0482450000000 -0.3794940000000 1.0   0.01
Li     1 -0.4162740000000  0.0279590000000  0.0940610000000 1.0  -0.00
Li     1  0.2503930000000 -0.0940610000000 -0.0661020000000 1.0  -0.00
Li     1 -0.0829400000000  0.0661020000000 -0.0279590000000 1.0  -0.00
Li     1 -0.4322710000000 -0.1810300000000 -0.3259460000000 1.0  -0.00
Li     1 -0.7656040000000  0.3259460000000  0.1449160000000 1.0  -0.00
Li     1 -0.0989370000000 -0.1449160000000  0.1810300000000 1.0  -0.00
O      2 -0.2298510000000  0.0960140000000  0.2647480000000 1.0   0.06
O      2  0.4368160000000 -0.2647480000000 -0.1687350000000 1.0   0.06
O      2  0.1034820000000  0.1687350000000 -0.0960140000000 1.0   0.06
S      3  0.3161250000000 -0.3193490000000  0.3444170000000 1.0   0.07
S      3 -0.0172080000000 -0.3444170000000  0.3362350000000 1.0   0.07
S      3 -0.3505420000000 -0.3362350000000  0.3193490000000 1.0   0.07
S      3  0.0159490000000 -0.3298950000000 -0.1710680000000 1.0   0.15
S      3 -0.3173840000000  0.1710680000000 -0.1588270000000 1.0   0.15
S      3  0.3492820000000  0.1588270000000  0.3298950000000 1.0   0.15
Fe     4 -0.2928790000000  0.0330810000000 -0.5165390000000 1.0   0.05
Fe     4  0.3737870000000  0.5165390000000  0.5496200000000 1.0   0.05
Fe     4  0.0404540000000 -0.5496200000000 -0.0330810000000 1.0   0.05
END
