TITL LFSO-Li4Fe3S3O2-201029-002120-6a1a71 0.0193 248.423652 -5.17242805E+003 12.0000 12.1871 12 (P3) n - 1
REM
REM Run started: Thu, 29 Oct 2020 02:16:19 +0000 in /lustre/scratch/uccabz1/launch_tmp/launcher_2020-10-29-00-21-18-620316
REM CASTEP 20.1 from code version af48c487+ pr-geom-scf-spinfix Tue Jun 2 15:39:59 2020 +0100
REM Functional Perdew Burke Ernzerhof Relativity Koelling-Harmon Dispersion off
REM Cut-off 340.0000 eV Grid scale 1.7500 Gmax 16.5316 1/A FBSC none
REM MP grid 3 3 3 Offset 0.000 0.000 0.000 No. kpts 8 Spacing 0.07
REM Total runtime: 8436.37 s
REM Overall efficiency: 96.4286 %
REM
REM
REM
REM compiler GCC version 4.9.2
REM options -cpp -iprefix /lustre/shared/ucl/apps/gcc/4.9.2/bin/../lib/gcc/x86_64-unknown-linux-gnu/4.9.2/ -mtune=corei7 -march=x86-64 -g -Og
REM COMMAND_LINE
REM seed -87025284 134334 2108931500 -1849076466 -2147024717 2066372 -1369589274 -1489048423 -351034557 -1281613845 371071802 -460034788
REM
REM S 3|1.8|5|6|7|30:31:32(qc=5)
REM O 2|1.5|12|13|15|20:21(qc=5)
REM Li 1|1.3|8|9|10|10U:20(qc=5)
REM Fe 3|2.2|2.0|1.0|8|9|10|40:41:32(qc=5)
REM Fe d:4.0 
REM
CELL 1.54180    6.93608    6.93608    5.96258   90.00000   90.00000  120.00000
LATT -1
SFAC Li O  S  Fe 
Li     1  0.2530130000000  0.2128780000000 -0.4243070000000 1.0  -0.02
Li     1 -0.0401350000000 -0.2530130000000 -0.4243070000000 1.0  -0.02
Li     1 -0.2128780000000  0.0401350000000 -0.4243070000000 1.0  -0.02
Li     1  0.0000000000000  0.0000000000000 -0.0147620000000 1.0  -0.05
O      2  0.0000000000000  0.0000000000000 -0.3110600000000 1.0   0.03
O      2 -0.3333330000000  0.3333330000000 -0.1109120000000 1.0   0.26
S      3  0.0522010000000 -0.2772260000000  0.1783050000000 1.0   0.13
S      3 -0.3294270000000 -0.0522010000000  0.1783050000000 1.0   0.13
S      3  0.2772260000000  0.3294270000000  0.1783050000000 1.0   0.13
Fe     4 -0.0647430000000  0.3528880000000  0.0513640000000 1.0   3.81
Fe     4  0.4176310000000  0.0647430000000  0.0513640000000 1.0   3.81
Fe     4 -0.3528880000000 -0.4176310000000  0.0513640000000 1.0   3.81
END
