TITL LFSO-Li4Fe3S4O-201029-231700-e50a85 0.0440 483.875347 -1.00791096E+004 24.0000 24.4126 24 (Pcc2) n - 1
REM
REM Run started: Fri, 30 Oct 2020 01:09:38 +0000 in /lustre/scratch/uccabz1/launch_tmp/launcher_2020-10-29-23-16-58-869771
REM CASTEP 20.1 from code version af48c487+ pr-geom-scf-spinfix Tue Jun 2 15:39:59 2020 +0100
REM Functional Perdew Burke Ernzerhof Relativity Koelling-Harmon Dispersion off
REM Cut-off 340.0000 eV Grid scale 1.7500 Gmax 16.5316 1/A FBSC none
REM MP grid 2 2 2 Offset 0.000 0.000 0.000 No. kpts 1 Spacing 0.07
REM Total runtime: 7466.35 s
REM Overall efficiency: 77.5 %
REM
REM
REM
REM compiler GCC version 4.9.2
REM options -cpp -iprefix /lustre/shared/ucl/apps/gcc/4.9.2/bin/../lib/gcc/x86_64-unknown-linux-gnu/4.9.2/ -mtune=corei7 -march=x86-64 -g -Og
REM COMMAND_LINE
REM seed 347915952 -1665323458 1637937592 696657089 -2023344944 1557530384 1727047262 -1464704798 -1339006474 286388260 -652726641 -2037337844
REM
REM S 3|1.8|5|6|7|30:31:32(qc=5)
REM O 2|1.5|12|13|15|20:21(qc=5)
REM Li 1|1.3|8|9|10|10U:20(qc=5)
REM Fe 3|2.2|2.0|1.0|8|9|10|40:41:32(qc=5)
REM Fe d:4.0 
REM
CELL 1.54180    8.11385    7.91243    7.53697   90.00000   90.00000   90.00000
LATT -1
SFAC Li O  S  Fe 
Li     1  0.1335100000000  0.3878730000000  0.0122640000000 1.0   0.01
Li     1 -0.1335100000000 -0.3878730000000  0.0122640000000 1.0   0.01
Li     1  0.1335100000000 -0.3878730000000  0.5122640000000 1.0   0.01
Li     1 -0.1335100000000  0.3878730000000  0.5122640000000 1.0   0.01
Li     1 -0.2394840000000  0.0624480000000 -0.0130860000000 1.0  -0.09
Li     1  0.2394840000000 -0.0624480000000 -0.0130860000000 1.0  -0.09
Li     1 -0.2394840000000 -0.0624480000000  0.4869140000000 1.0  -0.09
Li     1  0.2394840000000  0.0624480000000  0.4869140000000 1.0  -0.09
O      2  0.0000000000000  0.0000000000000 -0.0414800000000 1.0   0.16
O      2  0.0000000000000  0.0000000000000 -0.5414800000000 1.0   0.16
S      3 -0.1405820000000  0.3154030000000  0.1705410000000 1.0   0.20
S      3  0.1405820000000 -0.3154030000000  0.1705410000000 1.0   0.20
S      3 -0.1405820000000 -0.3154030000000 -0.3294590000000 1.0   0.20
S      3  0.1405820000000  0.3154030000000 -0.3294590000000 1.0   0.20
S      3 -0.3796380000000 -0.2146360000000  0.0796430000000 1.0   0.11
S      3  0.3796380000000  0.2146360000000  0.0796430000000 1.0   0.11
S      3 -0.3796380000000  0.2146360000000 -0.4203570000000 1.0   0.11
S      3  0.3796380000000 -0.2146360000000 -0.4203570000000 1.0   0.11
Fe     4 -0.4027980000000 -0.2793690000000 -0.2238340000000 1.0   3.80
Fe     4  0.4027980000000  0.2793690000000 -0.2238340000000 1.0   3.80
Fe     4 -0.4027980000000  0.2793690000000  0.2761660000000 1.0   3.80
Fe     4  0.4027980000000 -0.2793690000000  0.2761660000000 1.0   3.80
Fe     4  0.0000000000000  0.0000000000000  0.2110930000000 1.0   3.79
Fe     4  0.0000000000000  0.0000000000000 -0.2889070000000 1.0   3.79
END
