TITL LFSO-Li2Fe3S2O2-201024-061417-d6dd1f -0.0219 329.604491 -8.93972252E+003 24.0000 24.1196 18 (Pc) n - 1
REM
REM Run started: Sat, 24 Oct 2020 14:57:16 +0100 in /lustre/scratch/uccabz1/launch_tmp/launcher_2020-10-24-05-14-15-979964
REM CASTEP 20.1 from code version af48c487+ pr-geom-scf-spinfix Tue Jun 2 15:39:59 2020 +0100
REM Functional Perdew Burke Ernzerhof Relativity Koelling-Harmon Dispersion off
REM Cut-off 340.0000 eV Grid scale 1.7500 Gmax 16.5316 1/A FBSC none
REM MP grid 4 2 3 Offset 0.000 0.000 0.000 No. kpts 6 Spacing 0.07
REM Total runtime: 32536.3 s
REM Overall efficiency: 84.5833 %
REM
REM
REM
REM compiler GCC version 4.9.2
REM options -cpp -iprefix /lustre/shared/ucl/apps/gcc/4.9.2/bin/../lib/gcc/x86_64-unknown-linux-gnu/4.9.2/ -mtune=corei7 -march=x86-64 -g -Og
REM COMMAND_LINE
REM seed -1096343154 1713850776 -1612088381 555689802 2060419340 -407249707 -199824481 1707127709 2092337750 740184948 -113557597 -1962368073
REM
REM S 3|1.8|5|6|7|30:31:32(qc=5)
REM O 2|1.5|12|13|15|20:21(qc=5)
REM Li 1|1.3|8|9|10|10U:20(qc=5)
REM Fe 3|2.2|2.0|1.0|8|9|10|40:41:32(qc=5)
REM Fe d:4.0 
REM
CELL 1.54180    3.56889   13.37628   12.24307  145.67120   90.00000   90.00000
LATT -1
SFAC Li O  S  Fe 
Li     1 -0.0231650000000 -0.3345860000000  0.2639190000000 1.0  -0.04
Li     1  0.0231650000000 -0.3345860000000 -0.2360810000000 1.0  -0.04
Li     1 -0.4244320000000  0.0069160000000 -0.3218510000000 1.0  -0.00
Li     1  0.4244320000000  0.0069160000000  0.1781490000000 1.0  -0.00
O      2  0.5620420000000  0.2167070000000 -0.0425400000000 1.0   0.15
O      2 -0.5620420000000  0.2167070000000  0.4574600000000 1.0   0.15
O      2 -0.5228850000000 -0.3889770000000  0.1503070000000 1.0   0.15
O      2  0.5228850000000 -0.3889770000000 -0.3496930000000 1.0   0.15
S      3  0.0183680000000  0.1774340000000 -0.3108100000000 1.0   0.12
S      3 -0.0183680000000  0.1774340000000  0.1891900000000 1.0   0.12
S      3  0.1032490000000 -0.2104160000000 -0.4439510000000 1.0   0.11
S      3 -0.1032490000000 -0.2104160000000  0.0560490000000 1.0   0.11
Fe     4  0.4763990000000  0.3515480000000  0.4313290000000 1.0   3.82
Fe     4 -0.4763990000000  0.3515480000000 -0.0686710000000 1.0   3.82
Fe     4 -0.0683270000000  0.2004300000000 -0.4819740000000 1.0   3.87
Fe     4  0.0683270000000  0.2004300000000  0.0180260000000 1.0   3.87
Fe     4  0.3837030000000 -0.3016180000000  0.0850010000000 1.0   3.81
Fe     4 -0.3837030000000 -0.3016180000000 -0.4149990000000 1.0   3.81
END
