TITL LFSO-Li5FeSO3-201027-010018-a70dd7 -0.0076 182.110882 -3.47712422E+003 3.78908 4.39293 10 (C2) n - 1
REM
REM Run started: Tue, 27 Oct 2020 10:03:28 +0000 in /lustre/scratch/uccabz1/launch_tmp/launcher_2020-10-27-01-00-16-603029
REM CASTEP 20.1 from code version af48c487+ pr-geom-scf-spinfix Tue Jun 2 15:39:59 2020 +0100
REM Functional Perdew Burke Ernzerhof Relativity Koelling-Harmon Dispersion off
REM Cut-off 340.0000 eV Grid scale 1.7500 Gmax 16.5316 1/A FBSC none
REM MP grid 6 6 2 Offset 0.000 0.000 0.000 No. kpts 21 Spacing 0.07
REM Total runtime: 9797.49 s
REM Overall efficiency: 80.9091 %
REM
REM
REM
REM compiler GCC version 4.9.2
REM options -cpp -iprefix /lustre/shared/ucl/apps/gcc/4.9.2/bin/../lib/gcc/x86_64-unknown-linux-gnu/4.9.2/ -mtune=corei7 -march=x86-64 -g -Og
REM COMMAND_LINE
REM seed 1132509416 360281044 -567407740 -1811078867 989997128 462615998 70475187 -323224760 -1772516131 1842257539 -1497349959 -1128532826
REM
REM S 3|1.8|5|6|7|30:31:32(qc=5)
REM O 2|1.5|12|13|15|20:21(qc=5)
REM Li 1|1.3|8|9|10|10U:20(qc=5)
REM Fe 3|2.2|2.0|1.0|8|9|10|40:41:32(qc=5)
REM Fe d:4.0 
REM
CELL 1.54180    7.00003    7.00003    9.26100   95.21791   95.21791  153.97928
LATT -1
SFAC Li O  S  Fe 
Li     1 -0.5208980000000 -0.2585920000000  0.1481100000000 1.0   0.00
Li     1  0.2585920000000  0.5208980000000 -0.1481100000000 1.0   0.00
Li     1  0.5105820000000 -0.2270600000000 -0.3702220000000 1.0   0.01
Li     1  0.2270600000000 -0.5105820000000  0.3702220000000 1.0   0.01
Li     1  0.0088420000000 -0.0088420000000  0.5000000000000 1.0  -0.00
O      2  0.0779010000000  0.2064000000000  0.1755130000000 1.0   0.15
O      2 -0.2064000000000 -0.0779010000000 -0.1755130000000 1.0   0.15
O      2 -0.1200950000000  0.1200950000000  0.5000000000000 1.0   0.00
S      3  0.1957200000000 -0.1957200000000  0.0000000000000 1.0  -0.29
Fe     4  0.0211520000000 -0.0211520000000  0.0000000000000 1.0   3.74
END
