TITL LFSO-Li2FeSO-201024-205753-1bfb18 -0.0013 68.820191 -2.00378316E+003 3.99992 4.04174 5 (P-1) n - 1
REM
REM Run started: Sat, 24 Oct 2020 21:22:13 +0100 in /lustre/scratch/uccabz1/launch_tmp/launcher_2020-10-24-19-57-51-470721
REM CASTEP 20.1 from code version af48c487+ pr-geom-scf-spinfix Tue Jun 2 15:39:59 2020 +0100
REM Functional Perdew Burke Ernzerhof Relativity Koelling-Harmon Dispersion off
REM Cut-off 340.0000 eV Grid scale 1.7500 Gmax 16.5316 1/A FBSC none
REM MP grid 6 4 4 Offset 0.000 0.000 0.000 No. kpts 48 Spacing 0.07
REM Total runtime: 1770.42 s
REM Overall efficiency: 83.7143 %
REM
REM
REM
REM compiler GCC version 4.9.2
REM options -cpp -iprefix /lustre/shared/ucl/apps/gcc/4.9.2/bin/../lib/gcc/x86_64-unknown-linux-gnu/4.9.2/ -mtune=corei7 -march=x86-64 -g -Og
REM COMMAND_LINE
REM seed 327744514 734828952 1518122670 1847488483 -1841148786 -1479220197 1277178600 -1164301830 575358994 -908364170 1412346537 783502086
REM
REM S 3|1.8|5|6|7|30:31:32(qc=5)
REM O 2|1.5|12|13|15|20:21(qc=5)
REM Li 1|1.3|8|9|10|10U:20(qc=5)
REM Fe 3|2.2|2.0|1.0|8|9|10|40:41:32(qc=5)
REM Fe d:4.0 
REM
CELL 1.54180    3.75670    5.65805    5.57322  114.34987   45.67348  125.69650
LATT -1
SFAC Li O  S  Fe 
Li     1 -0.1310910000000 -0.2652890000000  0.4987590000000 1.0  -0.05
Li     1  0.1310910000000  0.2652890000000 -0.4987590000000 1.0  -0.05
O      2 -0.5000000000000  0.0000000000000  0.5000000000000 1.0   0.12
S      3  0.0000000000000  0.5000000000000  0.0000000000000 1.0   0.12
Fe     4  0.0000000000000  0.0000000000000  0.0000000000000 1.0   3.86
END
