TITL LFSO-Li2Fe4S4O-201022-190557-72885e -0.0218 706.122798 -1.09989617E+004 -0.173191E-07 30.5763 22 (Cmm2) n - 1
REM
REM Run started: Fri, 23 Oct 2020 01:37:43 +0100 in /lustre/scratch/uccabz1/launch_tmp/launcher_2020-10-22-23-42-00-992875
REM CASTEP 20.1 from code version af48c487+ pr-geom-scf-spinfix Tue Jun 2 15:39:59 2020 +0100
REM Functional Perdew Burke Ernzerhof Relativity Koelling-Harmon Dispersion off
REM Cut-off 340.0000 eV Grid scale 1.7500 Gmax 16.5316 1/A FBSC none
REM MP grid 2 2 2 Offset 0.000 0.000 0.000 No. kpts 2 Spacing 0.07
REM Total runtime: 19920.2 s
REM Overall efficiency: 78.2 %
REM
REM
REM
REM compiler GCC version 4.9.2
REM options -cpp -iprefix /lustre/shared/ucl/apps/gcc/4.9.2/bin/../lib/gcc/x86_64-unknown-linux-gnu/4.9.2/ -mtune=corei7 -march=x86-64 -g -Og
REM COMMAND_LINE
REM seed 217149009 1245282146 -1672278723 1243430611 -43774367 1415817646 871143507 198762741 -62633770 -917234977 2142374499 1829528610
REM
REM S 3|1.8|5|6|7|30:31:32(qc=5)
REM O 2|1.5|12|13|15|20:21(qc=5)
REM Li 1|1.3|8|9|10|10U:20(qc=5)
REM Fe 3|2.2|2.0|1.0|8|9|10|40:41:32(qc=5)
REM Fe d:4.0 
REM
CELL 1.54180   10.16764   10.16764    7.06697   90.00000   90.00000  104.86990
LATT -1
SFAC Li O  S  Fe 
Li     1 -0.5464180000000 -0.2478280000000  0.4636940000000 1.0   0.03
Li     1  0.5464180000000  0.2478280000000  0.4636940000000 1.0   0.03
Li     1  0.2478280000000  0.5464180000000  0.4636940000000 1.0   0.03
Li     1 -0.2478280000000 -0.5464180000000  0.4636940000000 1.0   0.03
O      2  0.3369860000000 -0.3369860000000  0.6543780000000 1.0  -0.13
O      2 -0.3369860000000  0.3369860000000  0.6543780000000 1.0  -0.13
S      3  0.3332040000000  0.0201880000000 -0.2492590000000 1.0  -0.00
S      3 -0.3332040000000 -0.0201880000000 -0.2492590000000 1.0  -0.00
S      3 -0.0201880000000 -0.3332040000000 -0.2492590000000 1.0  -0.00
S      3  0.0201880000000  0.3332040000000 -0.2492590000000 1.0  -0.00
S      3  0.5447130000000  0.1856620000000  0.1513530000000 1.0   0.10
S      3 -0.5447130000000 -0.1856620000000  0.1513530000000 1.0   0.10
S      3 -0.1856620000000 -0.5447130000000  0.1513530000000 1.0   0.10
S      3  0.1856620000000  0.5447130000000  0.1513530000000 1.0   0.10
Fe     4 -0.1719370000000  0.4339130000000 -0.1962040000000 1.0  -3.78
Fe     4  0.1719370000000 -0.4339130000000 -0.1962040000000 1.0  -3.78
Fe     4 -0.4339130000000  0.1719370000000 -0.1962040000000 1.0  -3.78
Fe     4  0.4339130000000 -0.1719370000000 -0.1962040000000 1.0  -3.78
Fe     4 -0.0039500000000 -0.3617800000000  0.0695530000000 1.0   3.71
Fe     4  0.0039500000000  0.3617800000000  0.0695530000000 1.0   3.71
Fe     4  0.3617800000000  0.0039500000000  0.0695530000000 1.0   3.71
Fe     4 -0.3617800000000 -0.0039500000000  0.0695530000000 1.0   3.71
END
