TITL LFSO-Li6FeS3O-201027-184047-387f70 0.0063 511.577882 -6.82240310E+003 -8.00000 8.22528 22 (P21) n - 1
REM
REM Run started: Wed, 28 Oct 2020 04:18:58 +0000 in /lustre/scratch/uccabz1/launch_tmp/launcher_2020-10-27-18-40-45-962548
REM CASTEP 20.1 from code version af48c487+ pr-geom-scf-spinfix Tue Jun 2 15:39:59 2020 +0100
REM Functional Perdew Burke Ernzerhof Relativity Koelling-Harmon Dispersion off
REM Cut-off 340.0000 eV Grid scale 1.7500 Gmax 16.5316 1/A FBSC none
REM MP grid 4 2 2 Offset 0.000 0.000 0.000 No. kpts 4 Spacing 0.07
REM Total runtime: 37220.3 s
REM Overall efficiency: 84.3333 %
REM
REM
REM
REM compiler GCC version 4.9.2
REM options -cpp -iprefix /lustre/shared/ucl/apps/gcc/4.9.2/bin/../lib/gcc/x86_64-unknown-linux-gnu/4.9.2/ -mtune=corei7 -march=x86-64 -g -Og
REM COMMAND_LINE
REM seed 1638916817 -2123977496 1066328016 -32973466 -668781298 1020847715 -233009849 1968456855 1240197268 1690848684 341289450 -1666161752
REM
REM S 3|1.8|5|6|7|30:31:32(qc=5)
REM O 2|1.5|12|13|15|20:21(qc=5)
REM Li 1|1.3|8|9|10|10U:20(qc=5)
REM Fe 3|2.2|2.0|1.0|8|9|10|40:41:32(qc=5)
REM Fe d:4.0 
REM
CELL 1.54180    3.83138    9.00986   15.22754   90.00000   90.00000  103.29097
LATT -1
SFAC Li O  S  Fe 
Li     1  0.6260250000000  0.3092130000000  0.4447700000000 1.0  -0.02
Li     1 -0.6260250000000 -0.3092130000000 -0.0552300000000 1.0  -0.02
Li     1  0.2229700000000  0.3039860000000  0.1198590000000 1.0  -0.01
Li     1 -0.2229700000000 -0.3039860000000 -0.3801410000000 1.0  -0.01
Li     1  0.4256150000000 -0.1132580000000 -0.1921830000000 1.0   0.01
Li     1 -0.4256150000000  0.1132580000000  0.3078170000000 1.0   0.01
Li     1  0.0278870000000 -0.0093390000000  0.1683380000000 1.0   0.02
Li     1 -0.0278870000000  0.0093390000000 -0.3316620000000 1.0   0.02
Li     1  0.4735620000000 -0.0000130000000 -0.4998840000000 1.0   0.01
Li     1 -0.4735620000000  0.0000130000000  0.0001160000000 1.0   0.01
Li     1  0.1264310000000  0.3000630000000  0.5693980000000 1.0   0.06
Li     1 -0.1264310000000 -0.3000630000000  0.0693980000000 1.0   0.06
O      2 -0.0751530000000 -0.2112580000000  0.1950250000000 1.0  -0.13
O      2  0.0751530000000  0.2112580000000 -0.3049750000000 1.0  -0.13
S      3 -0.7055620000000 -0.4445930000000  0.0746920000000 1.0  -0.13
S      3  0.7055620000000  0.4445930000000 -0.4253080000000 1.0  -0.13
S      3 -0.0462060000000 -0.1332120000000 -0.0789080000000 1.0  -0.00
S      3  0.0462060000000  0.1332120000000  0.4210920000000 1.0  -0.00
S      3 -0.3886480000000  0.1349300000000  0.1464630000000 1.0  -0.02
S      3  0.3886480000000 -0.1349300000000 -0.3535370000000 1.0  -0.02
Fe     4  0.3978570000000 -0.2603410000000  0.1920860000000 1.0  -3.79
Fe     4 -0.3978570000000  0.2603410000000 -0.3079140000000 1.0  -3.79
END
