TITL LFSO-Li2Fe3S2O2-201024-112806-c26f82 0.0105 184.151522 -4.46971329E+003 12.0000 12.1088 9 (P-1) n - 1
REM
REM Run started: Sat, 24 Oct 2020 18:06:11 +0100 in /lustre/scratch/uccabz1/launch_tmp/launcher_2020-10-24-10-28-05-278058
REM CASTEP 20.1 from code version af48c487+ pr-geom-scf-spinfix Tue Jun 2 15:39:59 2020 +0100
REM Functional Perdew Burke Ernzerhof Relativity Koelling-Harmon Dispersion off
REM Cut-off 340.0000 eV Grid scale 1.7500 Gmax 16.5316 1/A FBSC none
REM MP grid 5 3 3 Offset 0.000 0.000 0.000 No. kpts 23 Spacing 0.07
REM Total runtime: 24420.7 s
REM Overall efficiency: 83.2667 %
REM
REM
REM
REM compiler GCC version 4.9.2
REM options -cpp -iprefix /lustre/shared/ucl/apps/gcc/4.9.2/bin/../lib/gcc/x86_64-unknown-linux-gnu/4.9.2/ -mtune=corei7 -march=x86-64 -g -Og
REM COMMAND_LINE
REM seed -1173659140 311046799 -588711977 1364555820 1428657696 25481782 1835328403 1380972015 1786215118 -1038077038 1846405043 634794091
REM
REM S 3|1.8|5|6|7|30:31:32(qc=5)
REM O 2|1.5|12|13|15|20:21(qc=5)
REM Li 1|1.3|8|9|10|10U:20(qc=5)
REM Fe 3|2.2|2.0|1.0|8|9|10|40:41:32(qc=5)
REM Fe d:4.0 
REM
CELL 1.54180    6.61512    5.80058   10.42506  115.46333  149.22093   70.72393
LATT -1
SFAC Li O  S  Fe 
Li     1 -0.0846700000000 -0.2437420000000  0.3159680000000 1.0  -0.01
Li     1  0.0846700000000  0.2437420000000 -0.3159680000000 1.0  -0.01
O      2  0.1044230000000  0.5264060000000  0.2491920000000 1.0   0.18
O      2 -0.1044230000000 -0.5264060000000 -0.2491920000000 1.0   0.18
S      3  0.4136850000000  0.1573590000000 -0.3560840000000 1.0   0.12
S      3 -0.4136850000000 -0.1573590000000  0.3560840000000 1.0   0.12
Fe     4 -0.3339540000000 -0.2377840000000 -0.3880180000000 1.0   3.83
Fe     4  0.3339540000000  0.2377840000000  0.3880180000000 1.0   3.83
Fe     4  0.0000000000000  0.5000000000000  0.0000000000000 1.0   3.76
END
