TITL LFSO-Li2Fe3S3O-201025-073832-8a10a8 0.0108 163.768852 -4.33462286E+003 11.9983 12.0560 9 (Pm) n - 1
REM
REM Run started: Sun, 25 Oct 2020 10:33:44 +0000 in /lustre/scratch/uccabz1/launch_tmp/launcher_2020-10-25-07-38-30-537610
REM CASTEP 20.1 from code version af48c487+ pr-geom-scf-spinfix Tue Jun 2 15:39:59 2020 +0100
REM Functional Perdew Burke Ernzerhof Relativity Koelling-Harmon Dispersion off
REM Cut-off 340.0000 eV Grid scale 1.7500 Gmax 16.5316 1/A FBSC none
REM MP grid 3 5 3 Offset 0.000 0.000 0.000 No. kpts 16 Spacing 0.07
REM Total runtime: 11577.8 s
REM Overall efficiency: 90.9231 %
REM
REM
REM
REM compiler GCC version 4.9.2
REM options -cpp -iprefix /lustre/shared/ucl/apps/gcc/4.9.2/bin/../lib/gcc/x86_64-unknown-linux-gnu/4.9.2/ -mtune=corei7 -march=x86-64 -g -Og
REM COMMAND_LINE
REM seed 1851621930 -178070493 286080137 1596417030 733593219 1161663193 -1516033898 -701917209 1740943108 1924536333 362733740 -1907580306
REM
REM S 3|1.8|5|6|7|30:31:32(qc=5)
REM O 2|1.5|12|13|15|20:21(qc=5)
REM Li 1|1.3|8|9|10|10U:20(qc=5)
REM Fe 3|2.2|2.0|1.0|8|9|10|40:41:32(qc=5)
REM Fe d:4.0 
REM
CELL 1.54180    7.45215    3.65646    7.03110   90.00000   90.00000  121.26202
LATT -1
SFAC Li O  S  Fe 
Li     1 -0.0966200000000 -0.1520550000000  0.3018270000000 1.0  -0.02
Li     1 -0.0966200000000 -0.1520550000000 -0.3018270000000 1.0  -0.02
O      2  0.0773000000000 -0.5820480000000  0.0000000000000 1.0   0.25
S      3 -0.4598780000000  0.4578490000000 -0.2364120000000 1.0   0.20
S      3 -0.4598780000000  0.4578490000000  0.2364120000000 1.0   0.20
S      3  0.0399730000000  0.4864300000000  0.5000000000000 1.0   0.06
Fe     4  0.2571970000000 -0.3262970000000 -0.2196270000000 1.0   3.78
Fe     4  0.2571970000000 -0.3262970000000  0.2196270000000 1.0   3.78
Fe     4 -0.3885330000000  0.0282870000000  0.0000000000000 1.0   3.77
END
