TITL LFSO-LiFe3S4O-201028-102846-3d9046 0.0293 384.634312 -8.87600244E+003 22.0000 22.7626 18 (Pc) n - 1
REM
REM Run started: Thu, 29 Oct 2020 13:07:31 +0000 in /scratch/scratch/uccabz1/launch_tmp/launcher_2020-10-28-10-28-45-340929
REM CASTEP 19.11| from code version Version unavailable
REM Functional Perdew Burke Ernzerhof Relativity Koelling-Harmon Dispersion off
REM Cut-off 340.0000 eV Grid scale 1.7500 Gmax 16.5316 1/A FBSC none
REM MP grid 3 3 2 Offset 0.000 0.000 0.000 No. kpts 6 Spacing 0.07
REM Total runtime: 100835 s
REM Overall efficiency: 94.3077 %
REM
REM
REM
REM compiler GCC version 4.9.2
REM options -cpp -iprefix /scratch/UCL/applications/gcc/4.9.2/bin/../lib/gcc/x86_64-unknown-linux-gnu/4.9.2/ -mtune=corei7 -march=x86-64 -g -O2
REM COMMAND_LINE
REM seed 428698188 79154193 509970971 -317180810 563728436 1029952901 1653852046 470312900 -267081029 -35165698 398211241 -1567108841
REM
REM S 3|1.8|5|6|7|30:31:32(qc=5)
REM O 2|1.5|12|13|15|20:21(qc=5)
REM Li 1|1.3|8|9|10|10U:20(qc=5)
REM Fe 3|2.2|2.0|1.0|8|9|10|40:41:32(qc=5)
REM Fe d:4.0 
REM
CELL 1.54180    6.85215    7.02338    9.77599  125.15976   90.00000   90.00000
LATT -1
SFAC Li O  S  Fe 
Li     1  0.0875690000000  0.2779110000000 -0.2173050000000 1.0  -0.05
Li     1 -0.0875690000000 -0.2220890000000  0.2826950000000 1.0  -0.05
O      2 -0.1506910000000 -0.4706320000000  0.5398060000000 1.0   0.16
O      2  0.1506910000000  0.0293680000000  0.0398060000000 1.0   0.16
S      3 -0.1528640000000 -0.0059900000000 -0.4154450000000 1.0  -0.02
S      3  0.1528640000000 -0.5059900000000  0.0845550000000 1.0  -0.02
S      3 -0.2103250000000 -0.0580590000000  0.1354220000000 1.0  -0.04
S      3  0.2103250000000  0.4419410000000 -0.3645780000000 1.0  -0.04
S      3 -0.5149410000000 -0.4546910000000 -0.2490870000000 1.0  -0.01
S      3  0.5149410000000  0.0453090000000  0.2509130000000 1.0  -0.01
S      3  0.3498850000000 -0.0738320000000  0.6308940000000 1.0  -0.05
S      3 -0.3498850000000  0.4261680000000  0.1308940000000 1.0  -0.05
Fe     4  0.3599270000000  0.2371480000000  0.1200210000000 1.0   3.64
Fe     4 -0.3599270000000 -0.2628520000000 -0.3799790000000 1.0   3.64
Fe     4 -0.0625700000000  0.2113600000000  0.0789830000000 1.0   3.51
Fe     4  0.0625700000000 -0.2886400000000 -0.4210170000000 1.0   3.51
Fe     4  0.4859140000000 -0.3714880000000  0.0346690000000 1.0   3.84
Fe     4 -0.4859140000000  0.1285120000000 -0.4653310000000 1.0   3.84
END
