TITL LFSO-Li4Fe2S3O-201026-194153-180ec1 0.0309 407.365662 -7.74577077E+003 -15.7868 16.1032 20 (P3) n - 1
REM
REM Run started: Tue, 27 Oct 2020 15:05:20 +0000 in /scratch/scratch/uccabz1/launch_tmp/launcher_2020-10-26-19-41-50-222017
REM CASTEP 19.11| from code version Version unavailable
REM Functional Perdew Burke Ernzerhof Relativity Koelling-Harmon Dispersion off
REM Cut-off 340.0000 eV Grid scale 1.7500 Gmax 16.5316 1/A FBSC none
REM MP grid 3 3 2 Offset 0.000 0.000 0.000 No. kpts 5 Spacing 0.07
REM Total runtime: 72595.5 s
REM Overall efficiency: 63.8889 %
REM
REM
REM
REM compiler GCC version 4.9.2
REM options -cpp -iprefix /scratch/UCL/applications/gcc/4.9.2/bin/../lib/gcc/x86_64-unknown-linux-gnu/4.9.2/ -mtune=corei7 -march=x86-64 -g -O2
REM COMMAND_LINE
REM seed -1409324388 -561474444 -1945715565 -1905957896 -1611765333 -876955384 2078686997 -1607355115 1541658035 1563361436 1486852137 -1528423324
REM
REM S 3|1.8|5|6|7|30:31:32(qc=5)
REM O 2|1.5|12|13|15|20:21(qc=5)
REM Li 1|1.3|8|9|10|10U:20(qc=5)
REM Fe 3|2.2|2.0|1.0|8|9|10|40:41:32(qc=5)
REM Fe d:4.0 
REM
CELL 1.54180    7.10727    7.10727    9.31211   90.00000   90.00000  120.00000
LATT -1
SFAC Li O  S  Fe 
Li     1 -0.0532990000000 -0.3783710000000  0.0739210000000 1.0   0.02
Li     1 -0.3250720000000  0.0532990000000  0.0739210000000 1.0   0.02
Li     1  0.3783710000000  0.3250720000000  0.0739210000000 1.0   0.02
Li     1 -0.2508590000000 -0.2276440000000  0.3459500000000 1.0   0.03
Li     1  0.0232150000000  0.2508590000000  0.3459500000000 1.0   0.03
Li     1  0.2276440000000 -0.0232150000000  0.3459500000000 1.0   0.03
Li     1 -0.3333330000000  0.3333330000000  0.6477910000000 1.0   0.07
Li     1 -0.0000000000000  0.0000000000000 -0.0740040000000 1.0   0.00
O      2 -0.0000000000000  0.0000000000000 -0.5797540000000 1.0  -0.12
O      2 -0.0000000000000  0.0000000000000 -0.2749140000000 1.0  -0.14
S      3  0.0038460000000 -0.5816340000000 -0.4282870000000 1.0  -0.08
S      3 -0.5854800000000 -0.0038460000000 -0.4282870000000 1.0  -0.08
S      3  0.5816340000000  0.5854800000000 -0.4282870000000 1.0  -0.08
S      3  0.0399410000000  0.3367080000000  0.0690010000000 1.0  -0.06
S      3  0.2967670000000 -0.0399410000000  0.0690010000000 1.0  -0.06
S      3 -0.3367080000000 -0.2967670000000  0.0690010000000 1.0  -0.06
Fe     4  0.2386450000000  0.2517620000000  0.6110110000000 1.0  -3.86
Fe     4  0.0131170000000 -0.2386450000000  0.6110110000000 1.0  -3.86
Fe     4 -0.2517620000000 -0.0131170000000  0.6110110000000 1.0  -3.86
Fe     4  0.3333330000000 -0.3333330000000 -0.0196890000000 1.0  -3.77
END
