TITL LFSO-Li3FeS2O-201025-033618-95baa0 0.0004 536.617324 -7.51979616E+003 9.00094 10.7695 21 (Cm) n - 1
REM
REM Run started: Sun, 25 Oct 2020 07:00:23 +0000 in /lustre/scratch/uccabz1/launch_tmp/launcher_2020-10-25-06-40-47-914196
REM CASTEP 20.1 from code version af48c487+ pr-geom-scf-spinfix Tue Jun 2 15:39:59 2020 +0100
REM Functional Perdew Burke Ernzerhof Relativity Koelling-Harmon Dispersion off
REM Cut-off 340.0000 eV Grid scale 1.7500 Gmax 16.5316 1/A FBSC none
REM MP grid 2 3 2 Offset 0.000 0.000 0.000 No. kpts 6 Spacing 0.07
REM Total runtime: 12711.2 s
REM Overall efficiency: 78.5 %
REM
REM
REM
REM compiler GCC version 4.9.2
REM options -cpp -iprefix /lustre/shared/ucl/apps/gcc/4.9.2/bin/../lib/gcc/x86_64-unknown-linux-gnu/4.9.2/ -mtune=corei7 -march=x86-64 -g -Og
REM COMMAND_LINE
REM seed -800496919 -1174151888 1712661101 1269794401 -1293761345 -1146906801 -1066731724 -736138971 -1392880428 -451620090 -2029099850 -1575363879
REM
REM S 3|1.8|5|6|7|30:31:32(qc=5)
REM O 2|1.5|12|13|15|20:21(qc=5)
REM Li 1|1.3|8|9|10|10U:20(qc=5)
REM Fe 3|2.2|2.0|1.0|8|9|10|40:41:32(qc=5)
REM Fe d:4.0 
REM
CELL 1.54180   10.15068    6.99728    9.19354   81.88911  123.50814   90.00000
LATT -1
SFAC Li O  S  Fe 
Li     1  0.5809310000000  0.4830350000000 -0.3954200000000 1.0  -0.02
Li     1  0.0236490000000  0.4830350000000 -0.3954200000000 1.0  -0.02
Li     1 -0.4147480000000 -0.1093440000000 -0.0936330000000 1.0  -0.01
Li     1  0.3211150000000 -0.1093440000000 -0.0936330000000 1.0  -0.01
Li     1 -0.2658190000000 -0.1537390000000  0.2320520000000 1.0  -0.02
Li     1  0.4978710000000 -0.1537390000000  0.2320520000000 1.0  -0.02
Li     1 -0.1719570000000  0.4903460000000  0.2547920000000 1.0   0.01
Li     1  0.4267500000000  0.4903460000000  0.2547920000000 1.0   0.01
Li     1 -0.0832550000000 -0.1528320000000 -0.1665100000000 1.0  -0.02
O      2  0.4980870000000 -0.3226070000000  0.4091980000000 1.0   0.08
O      2 -0.0888890000000 -0.3226070000000  0.4091980000000 1.0   0.08
O      2 -0.4707320000000 -0.1629170000000  0.0585360000000 1.0  -0.01
S      3  0.1217950000000 -0.3294710000000 -0.1773120000000 1.0  -0.07
S      3 -0.2991060000000 -0.3294710000000 -0.1773120000000 1.0  -0.07
S      3  0.4850280000000  0.1406140000000  0.3201660000000 1.0  -0.11
S      3 -0.1648610000000  0.1406140000000  0.3201660000000 1.0  -0.11
S      3  0.0272260000000  0.1208920000000 -0.2827080000000 1.0  -0.19
S      3 -0.3099340000000  0.1208920000000 -0.2827080000000 1.0  -0.19
Fe     4 -0.0084640000000 -0.1254030000000 -0.4484540000000 1.0   3.22
Fe     4  0.5600110000000 -0.1254030000000 -0.4484540000000 1.0   3.22
Fe     4 -0.2459970000000  0.1666120000000 -0.4919940000000 1.0   3.24
END
