TITL LFSO-Li5FeSO3-201026-125546-69c1ea -0.0500 137.383169 -3.47710919E+003 3.12980 3.52996 10 (Immm) n - 1
REM
REM Run started: Mon, 26 Oct 2020 14:08:33 +0000 in /scratch/scratch/uccabz1/launch_tmp/launcher_2020-10-26-12-55-44-638286
REM CASTEP 19.11| from code version Version unavailable
REM Functional Perdew Burke Ernzerhof Relativity Koelling-Harmon Dispersion off
REM Cut-off 340.0000 eV Grid scale 1.7500 Gmax 16.5316 1/A FBSC none
REM MP grid 4 3 3 Offset 0.000 0.000 0.000 No. kpts 12 Spacing 0.07
REM Total runtime: 4725.32 s
REM Overall efficiency: 84.75 %
REM
REM
REM
REM compiler GCC version 4.9.2
REM options -cpp -iprefix /scratch/UCL/applications/gcc/4.9.2/bin/../lib/gcc/x86_64-unknown-linux-gnu/4.9.2/ -mtune=corei7 -march=x86-64 -g -O2
REM COMMAND_LINE
REM seed 1725342805 991619245 -329233998 2004894953 -426629626 -1848040139 1588161354 -2140684370 -1586398432 -1012301679 -2021603723 1462048546
REM
REM S 3|1.8|5|6|7|30:31:32(qc=5)
REM O 2|1.5|12|13|15|20:21(qc=5)
REM Li 1|1.3|8|9|10|10U:20(qc=5)
REM Fe 3|2.2|2.0|1.0|8|9|10|40:41:32(qc=5)
REM Fe d:4.0 
REM
CELL 1.54180    4.61628    6.11463    6.11463   62.51873   67.82240   67.82240
LATT -1
SFAC Li O  S  Fe 
Li     1  0.3513290000000 -0.6607140000000 -0.0394430000000 1.0   0.00
Li     1 -0.3513290000000  0.0394430000000  0.6607140000000 1.0   0.00
Li     1  0.3488280000000 -0.0394430000000 -0.6607140000000 1.0   0.00
Li     1 -0.3488280000000  0.6607140000000  0.0394430000000 1.0   0.00
Li     1  0.0000000000000 -0.0000000000000  0.0000000000000 1.0  -0.06
O      2  0.8053160000000 -0.3053160000000 -0.3053160000000 1.0   0.03
O      2 -0.8053160000000  0.3053160000000  0.3053160000000 1.0   0.03
O      2  0.5000000000000 -0.0000000000000  0.0000000000000 1.0  -0.02
S      3 -0.5000000000000  0.5000000000000  0.5000000000000 1.0  -0.09
Fe     4 -1.0000000000000  0.5000000000000  0.5000000000000 1.0   3.21
END
