TITL LFSO-Li5FeS2O2-201025-174145-84d40b 0.0135 434.753119 -6.68611452E+003 9.96654 10.1291 20 (Fmmm) n - 1
REM
REM Run started: Sun, 25 Oct 2020 20:02:05 +0000 in /lustre/scratch/uccabz1/launch_tmp/launcher_2020-10-25-17-41-43-674770
REM CASTEP 20.1 from code version af48c487+ pr-geom-scf-spinfix Tue Jun 2 15:39:59 2020 +0100
REM Functional Perdew Burke Ernzerhof Relativity Koelling-Harmon Dispersion off
REM Cut-off 340.0000 eV Grid scale 1.7500 Gmax 16.5316 1/A FBSC none
REM MP grid 3 3 2 Offset 0.000 0.000 0.000 No. kpts 6 Spacing 0.07
REM Total runtime: 10215.5 s
REM Overall efficiency: 76 %
REM
REM
REM
REM compiler GCC version 4.9.2
REM options -cpp -iprefix /lustre/shared/ucl/apps/gcc/4.9.2/bin/../lib/gcc/x86_64-unknown-linux-gnu/4.9.2/ -mtune=corei7 -march=x86-64 -g -Og
REM COMMAND_LINE
REM seed -1281397977 -221200573 -65572642 343424354 -1592981928 -908364170 1236590720 212622936 1853383618 -1756312508 1087582818 -1717084434
REM
REM S 3|1.8|5|6|7|30:31:32(qc=5)
REM O 2|1.5|12|13|15|20:21(qc=5)
REM Li 1|1.3|8|9|10|10U:20(qc=5)
REM Fe 3|2.2|2.0|1.0|8|9|10|40:41:32(qc=5)
REM Fe d:4.0 
REM
CELL 1.54180    6.90090    6.90090   10.68115  101.02393  101.02393  114.08329
LATT -1
SFAC Li O  S  Fe 
Li     1 -0.0062600000000 -0.2475470000000 -0.2836330000000 1.0  -0.00
Li     1 -0.2773730000000 -0.0360860000000 -0.2836330000000 1.0  -0.00
Li     1  0.2475470000000  0.0062600000000  0.2836330000000 1.0  -0.00
Li     1  0.0360860000000  0.2773730000000  0.2836330000000 1.0  -0.00
Li     1  0.2524770000000  0.4936200000000 -0.2837030000000 1.0  -0.00
Li     1 -0.5361800000000  0.2226770000000 -0.2837030000000 1.0  -0.00
Li     1 -0.4936200000000 -0.2524770000000  0.2837030000000 1.0  -0.00
Li     1 -0.2226770000000  0.5361800000000  0.2837030000000 1.0  -0.00
Li     1 -0.1230250000000  0.1230250000000  0.5000000000000 1.0  -0.05
Li     1 -0.3769750000000  0.3769750000000  0.5000000000000 1.0  -0.05
O      2  0.0134190000000  0.5134410000000  0.3770630000000 1.0   0.50
O      2  0.3636430000000 -0.1363790000000  0.3770630000000 1.0   0.50
O      2 -0.5134410000000 -0.0134190000000 -0.3770630000000 1.0   0.50
O      2  0.1363790000000 -0.3636430000000 -0.3770630000000 1.0   0.50
S      3  0.0838010000000  0.1073650000000 -0.3087890000000 1.0   0.07
S      3 -0.3925900000000 -0.4161540000000 -0.3087890000000 1.0   0.07
S      3 -0.1073650000000 -0.0838010000000  0.3087890000000 1.0   0.07
S      3  0.4161540000000  0.3925900000000  0.3087890000000 1.0   0.07
Fe     4  0.1504830000000 -0.1504830000000 -0.5000000000000 1.0   3.91
Fe     4  0.3495170000000 -0.3495170000000 -0.5000000000000 1.0   3.91
END
