TITL LFSO-Li2Fe4S3O2-201026-115455-1f7ee9 0.0058 201.029053 -5.63554293E+003 16.0000 16.1841 11 (R3) n - 1
REM
REM Run started: Mon, 26 Oct 2020 16:47:24 +0000 in /scratch/scratch/uccabz1/launch_tmp/launcher_2020-10-26-11-54-54-145167
REM CASTEP 19.11| from code version Version unavailable
REM Functional Perdew Burke Ernzerhof Relativity Koelling-Harmon Dispersion off
REM Cut-off 340.0000 eV Grid scale 1.7500 Gmax 16.5316 1/A FBSC none
REM MP grid 3 3 4 Offset 0.000 0.000 0.000 No. kpts 14 Spacing 0.07
REM Total runtime: 17642.7 s
REM Overall efficiency: 96.6667 %
REM
REM
REM
REM compiler GCC version 4.9.2
REM options -cpp -iprefix /scratch/UCL/applications/gcc/4.9.2/bin/../lib/gcc/x86_64-unknown-linux-gnu/4.9.2/ -mtune=corei7 -march=x86-64 -g -O2
REM COMMAND_LINE
REM seed -1050523598 -1802831545 1306543168 -1314793152 958845014 2012522561 -1202263823 494402825 -1356615287 -1307290036 1069219586 -165191133
REM
REM S 3|1.8|5|6|7|30:31:32(qc=5)
REM O 2|1.5|12|13|15|20:21(qc=5)
REM Li 1|1.3|8|9|10|10U:20(qc=5)
REM Fe 3|2.2|2.0|1.0|8|9|10|40:41:32(qc=5)
REM Fe d:4.0 
REM
CELL 1.54180    7.00791    7.00791    6.22184   55.72461   55.72461   60.00000
LATT -1
SFAC Li O  S  Fe 
Li     1 -0.3794580000000 -0.3794580000000  0.1383750000000 1.0  -0.04
Li     1  0.3033450000000  0.3033450000000  0.0899650000000 1.0  -0.04
O      2  0.4435090000000  0.4435090000000 -0.3305280000000 1.0   0.15
O      2 -0.2355330000000 -0.2355330000000 -0.2934010000000 1.0   0.16
S      3  0.2638880000000 -0.3870650000000  0.1681130000000 1.0   0.14
S      3 -0.3870650000000 -0.0449370000000  0.1681130000000 1.0   0.14
S      3 -0.0449370000000  0.2638880000000  0.1681130000000 1.0   0.14
Fe     4 -0.4389760000000  0.6674830000000 -0.3382210000000 1.0   3.87
Fe     4  0.6674830000000  0.1097140000000 -0.3382210000000 1.0   3.87
Fe     4  0.1097140000000 -0.4389760000000 -0.3382210000000 1.0   3.87
Fe     4 -0.0312800000000 -0.0312800000000  0.0938390000000 1.0   3.75
END
