TITL LFSO-Li6FeS3O-201027-183231-caa2b8 -0.0328 380.456229 -6.82361558E+003 8.00000 8.14605 22 (C2) n - 1
REM
REM Run started: Wed, 28 Oct 2020 09:24:12 +0000 in /scratch/scratch/uccabz1/launch_tmp/launcher_2020-10-27-18-32-30-223033
REM CASTEP 19.11| from code version Version unavailable
REM Functional Perdew Burke Ernzerhof Relativity Koelling-Harmon Dispersion off
REM Cut-off 340.0000 eV Grid scale 1.7500 Gmax 16.5316 1/A FBSC none
REM MP grid 4 2 2 Offset 0.000 0.000 0.000 No. kpts 8 Spacing 0.07
REM Total runtime: 55628.7 s
REM Overall efficiency: 76 %
REM
REM
REM
REM compiler GCC version 4.9.2
REM options -cpp -iprefix /scratch/UCL/applications/gcc/4.9.2/bin/../lib/gcc/x86_64-unknown-linux-gnu/4.9.2/ -mtune=corei7 -march=x86-64 -g -O2
REM COMMAND_LINE
REM seed -1279811659 -613324985 -560995461 2020663892 2074549482 1826432336 389363080 744398076 -1837199102 1067530543 1436580566 -1697904313
REM
REM S 3|1.8|5|6|7|30:31:32(qc=5)
REM O 2|1.5|12|13|15|20:21(qc=5)
REM Li 1|1.3|8|9|10|10U:20(qc=5)
REM Fe 3|2.2|2.0|1.0|8|9|10|40:41:32(qc=5)
REM Fe d:4.0 
REM
CELL 1.54180    3.88172    7.15097   14.75462   75.41554   89.99999  105.74828
LATT -1
SFAC Li O  S  Fe 
Li     1  0.1836690000000  0.3745240000000 -0.0394160000000 1.0   0.04
Li     1 -0.1908550000000 -0.3745250000000  0.0394160000000 1.0   0.04
Li     1 -0.5430870000000  0.4660020000000  0.2544330000000 1.0  -0.01
Li     1 -0.0090880000000 -0.4660020000000 -0.2544330000000 1.0  -0.01
Li     1  0.1467020000000  0.0850400000000 -0.4106710000000 1.0  -0.02
Li     1  0.0616620000000 -0.0850400000000  0.4106710000000 1.0  -0.02
Li     1  0.7705240000000  0.3445210000000 -0.4637400000000 1.0  -0.00
Li     1  0.4260030000000 -0.3445210000000  0.4637400000000 1.0  -0.00
Li     1 -0.2958520000000  0.1649780000000  0.3884900000000 1.0  -0.01
Li     1 -0.4608300000000 -0.1649780000000 -0.3884900000000 1.0  -0.01
Li     1  0.0582630000000  0.0967050000000  0.1186930000000 1.0  -0.08
Li     1 -0.0384430000000 -0.0967060000000 -0.1186930000000 1.0  -0.08
O      2  0.6367120000000  0.0890340000000 -0.3716550000000 1.0   0.11
O      2  0.5476780000000 -0.0890340000000  0.3716550000000 1.0   0.11
S      3  0.6463230000000  0.2745550000000  0.1083420000000 1.0   0.03
S      3  0.3717680000000 -0.2745550000000 -0.1083420000000 1.0   0.03
S      3 -0.0709410000000 -0.2434430000000  0.1851180000000 1.0   0.05
S      3  0.1725020000000  0.2434430000000 -0.1851180000000 1.0   0.05
S      3 -0.7216420000000  0.3196090000000 -0.5738970000000 1.0   0.01
S      3 -0.0412510000000 -0.3196090000000  0.5738970000000 1.0   0.01
Fe     4 -0.4183810000000  0.0949340000000 -0.2434470000000 1.0   3.88
Fe     4 -0.5133150000000 -0.0949350000000  0.2434470000000 1.0   3.88
END
