TITL LFSO-Li2FeSO-201025-182609-4d8dee -0.0616 491.840884 -8.01162846E+003 16.0000 16.3654 20 (Cm) n - 1
REM
REM Run started: Tue, 27 Oct 2020 09:34:34 +0000 in /scratch/scratch/uccabz1/launch_tmp/launcher_2020-10-25-18-26-06-725673
REM CASTEP 19.11| from code version Version unavailable
REM Functional Perdew Burke Ernzerhof Relativity Koelling-Harmon Dispersion off
REM Cut-off 340.0000 eV Grid scale 1.7500 Gmax 16.5316 1/A FBSC none
REM MP grid 5 3 2 Offset 0.000 0.000 0.000 No. kpts 14 Spacing 0.07
REM Total runtime: 155637 s
REM Overall efficiency: 95 %
REM
REM
REM
REM compiler GCC version 4.9.2
REM options -cpp -iprefix /scratch/UCL/applications/gcc/4.9.2/bin/../lib/gcc/x86_64-unknown-linux-gnu/4.9.2/ -mtune=corei7 -march=x86-64 -g -O2
REM COMMAND_LINE
REM seed 1377847941 2145556193 -420281756 959830596 440027748 158428275 486929075 -1533677411 -1457171841 1272918476 -558254390 -572822893
REM
REM S 3|1.8|5|6|7|30:31:32(qc=5)
REM O 2|1.5|12|13|15|20:21(qc=5)
REM Li 1|1.3|8|9|10|10U:20(qc=5)
REM Fe 3|2.2|2.0|1.0|8|9|10|40:41:32(qc=5)
REM Fe d:4.0 
REM
CELL 1.54180    6.35380    7.80300   21.09368   69.57284   30.99147   65.97485
LATT -1
SFAC Li O  S  Fe 
Li     1 -0.3226550000000  0.2211720000000  0.5322400000000 1.0  -0.04
Li     1 -0.1014830000000 -0.2211720000000  0.5322400000000 1.0  -0.04
Li     1  0.2370020000000 -0.3507410000000 -0.1835730000000 1.0  -0.04
Li     1 -0.1137390000000  0.3507410000000 -0.1835730000000 1.0  -0.04
Li     1 -0.3714040000000 -0.3197790000000 -0.1697680000000 1.0  -0.01
Li     1  0.3088170000000  0.3197790000000 -0.1697680000000 1.0  -0.01
Li     1 -0.0132200000000 -0.4663260000000  0.4083920000000 1.0  -0.03
Li     1 -0.4795450000000  0.4663260000000  0.4083920000000 1.0  -0.03
O      2 -0.0582630000000  0.5304780000000 -0.1537770000000 1.0   0.17
O      2  0.4722150000000 -0.5304780000000 -0.1537770000000 1.0   0.17
O      2  0.1894180000000 -0.3724130000000  0.4166740000000 1.0   0.13
O      2 -0.1829950000000  0.3724130000000  0.4166740000000 1.0   0.13
S      3 -0.2762720000000 -0.1495860000000 -0.3235720000000 1.0   0.01
S      3  0.5741420000000  0.1495860000000 -0.3235720000000 1.0   0.01
S      3 -0.4170940000000  0.2883760000000  0.0942970000000 1.0   0.11
S      3 -0.1287180000000 -0.2883760000000  0.0942970000000 1.0   0.11
Fe     4  0.2396910000000  0.1907760000000  0.2905200000000 1.0   3.92
Fe     4 -0.5695330000000 -0.1907760000000  0.2905200000000 1.0   3.92
Fe     4 -0.5558740000000  0.5215970000000  0.0219160000000 1.0   3.78
Fe     4 -0.0342770000000 -0.5215970000000  0.0219160000000 1.0   3.78
END
