TITL LFSO-Li2Fe4S4O-201024-094532-18708e -0.0004 298.154191 -5.50078881E+003 16.0000 16.0605 11 (Pm) n - 1
REM
REM Run started: Sat, 24 Oct 2020 12:58:54 +0100 in /lustre/scratch/uccabz1/launch_tmp/launcher_2020-10-24-08-45-30-807310
REM CASTEP 20.1 from code version af48c487+ pr-geom-scf-spinfix Tue Jun 2 15:39:59 2020 +0100
REM Functional Perdew Burke Ernzerhof Relativity Koelling-Harmon Dispersion off
REM Cut-off 340.0000 eV Grid scale 1.7500 Gmax 16.5316 1/A FBSC none
REM MP grid 4 3 2 Offset 0.000 0.000 0.000 No. kpts 6 Spacing 0.07
REM Total runtime: 12247.1 s
REM Overall efficiency: 77.4615 %
REM
REM
REM
REM compiler GCC version 4.9.2
REM options -cpp -iprefix /lustre/shared/ucl/apps/gcc/4.9.2/bin/../lib/gcc/x86_64-unknown-linux-gnu/4.9.2/ -mtune=corei7 -march=x86-64 -g -Og
REM COMMAND_LINE
REM seed 599503216 -1593421249 -798300034 466604450 152625962 1676522494 861692244 914124783 769765754 1326799732 1140975023 18662833
REM
REM S 3|1.8|5|6|7|30:31:32(qc=5)
REM O 2|1.5|12|13|15|20:21(qc=5)
REM Li 1|1.3|8|9|10|10U:20(qc=5)
REM Fe 3|2.2|2.0|1.0|8|9|10|40:41:32(qc=5)
REM Fe d:4.0 
REM
CELL 1.54180    3.85365    6.61687   11.75557   90.00000   90.00000   84.07393
LATT -1
SFAC Li O  S  Fe 
Li     1 -0.0762830000000  0.1194420000000 -0.2244730000000 1.0  -0.02
Li     1 -0.0762830000000  0.1194420000000  0.2244730000000 1.0  -0.02
O      2  0.2003860000000 -0.4471250000000 -0.5000000000000 1.0   0.23
S      3 -0.1839390000000  0.4567410000000  0.2641430000000 1.0   0.17
S      3 -0.1839390000000  0.4567410000000 -0.2641430000000 1.0   0.17
S      3  0.4331810000000 -0.0268470000000  0.3263540000000 1.0   0.08
S      3  0.4331810000000 -0.0268470000000 -0.3263540000000 1.0   0.08
Fe     4  0.3470680000000  0.3457030000000 -0.3727440000000 1.0   3.83
Fe     4  0.3470680000000  0.3457030000000  0.3727440000000 1.0   3.83
Fe     4 -0.0281920000000 -0.2529620000000 -0.3714310000000 1.0   3.83
Fe     4 -0.0281920000000 -0.2529620000000  0.3714310000000 1.0   3.83
END
