TITL LFSO-Li4Fe3S4O-201029-130100-114215 -0.0163 573.327594 -1.00760869E+004 21.9997 22.6952 24 (P2) n - 1
REM
REM Run started: Thu, 29 Oct 2020 21:36:47 +0000 in /lustre/scratch/uccabz1/launch_tmp/launcher_2020-10-29-13-00-58-739095
REM CASTEP 20.1 from code version af48c487+ pr-geom-scf-spinfix Tue Jun 2 15:39:59 2020 +0100
REM Functional Perdew Burke Ernzerhof Relativity Koelling-Harmon Dispersion off
REM Cut-off 340.0000 eV Grid scale 1.7500 Gmax 16.5316 1/A FBSC none
REM MP grid 3 2 2 Offset 0.000 0.000 0.000 No. kpts 3 Spacing 0.07
REM Total runtime: 33221 s
REM Overall efficiency: 77.1111 %
REM
REM
REM
REM compiler GCC version 4.9.2
REM options -cpp -iprefix /lustre/shared/ucl/apps/gcc/4.9.2/bin/../lib/gcc/x86_64-unknown-linux-gnu/4.9.2/ -mtune=corei7 -march=x86-64 -g -Og
REM COMMAND_LINE
REM seed 1799748480 -1169589141 -1728702115 1090825685 1156042960 -1469987720 156025385 90406789 39747796 1905045538 -92217560 22044783
REM
REM S 3|1.8|5|6|7|30:31:32(qc=5)
REM O 2|1.5|12|13|15|20:21(qc=5)
REM Li 1|1.3|8|9|10|10U:20(qc=5)
REM Fe 3|2.2|2.0|1.0|8|9|10|40:41:32(qc=5)
REM Fe d:4.0 
REM
CELL 1.54180    6.88763    7.55037   11.13264   90.00000   90.00000   97.98693
LATT -1
SFAC Li O  S  Fe 
Li     1 -0.4580290000000  0.1580160000000  0.1704970000000 1.0  -0.03
Li     1  0.4580290000000 -0.1580160000000  0.1704970000000 1.0  -0.03
Li     1  0.2859820000000  0.0156450000000 -0.3349650000000 1.0  -0.02
Li     1 -0.2859820000000 -0.0156450000000 -0.3349650000000 1.0  -0.02
Li     1 -0.1301500000000  0.1360650000000  0.0593250000000 1.0  -0.06
Li     1  0.1301500000000 -0.1360650000000  0.0593250000000 1.0  -0.06
Li     1  0.2671030000000  0.4142420000000 -0.3937870000000 1.0  -0.00
Li     1 -0.2671030000000 -0.4142420000000 -0.3937870000000 1.0  -0.00
O      2 -0.2686800000000 -0.0216780000000  0.1732810000000 1.0   0.11
O      2  0.2686800000000  0.0216780000000  0.1732810000000 1.0   0.11
S      3 -0.5776020000000 -0.2645460000000 -0.3445450000000 1.0   0.14
S      3  0.5776020000000  0.2645460000000 -0.3445450000000 1.0   0.14
S      3  0.3200240000000  0.6415980000000  0.0031070000000 1.0   0.13
S      3 -0.3200240000000 -0.6415980000000  0.0031070000000 1.0   0.13
S      3  0.1100500000000  0.2330980000000 -0.2287730000000 1.0   0.07
S      3 -0.1100500000000 -0.2330980000000 -0.2287730000000 1.0   0.07
S      3 -0.1229530000000 -0.4275460000000  0.3801790000000 1.0   0.00
S      3  0.1229530000000  0.4275460000000  0.3801790000000 1.0   0.00
Fe     4  0.1278990000000  0.1608370000000  0.2683700000000 1.0   3.49
Fe     4 -0.1278990000000 -0.1608370000000  0.2683700000000 1.0   3.49
Fe     4  0.1965280000000 -0.3120370000000 -0.1867620000000 1.0   3.65
Fe     4 -0.1965280000000  0.3120370000000 -0.1867620000000 1.0   3.65
Fe     4 -0.4135520000000 -0.3386160000000 -0.1328060000000 1.0   3.52
Fe     4  0.4135520000000  0.3386160000000 -0.1328060000000 1.0   3.52
END
