TITL LFSO-Li2Fe3S2O2-201024-072013-2f0070 -0.0283 345.931217 -8.93861089E+003 23.9909 24.1523 18 (Pc) n - 1
REM
REM Run started: Sun, 25 Oct 2020 10:16:19 +0000 in /lustre/scratch/uccabz1/launch_tmp/launcher_2020-10-25-00-00-35-274794
REM CASTEP 20.1 from code version af48c487+ pr-geom-scf-spinfix Tue Jun 2 15:39:59 2020 +0100
REM Functional Perdew Burke Ernzerhof Relativity Koelling-Harmon Dispersion off
REM Cut-off 340.0000 eV Grid scale 1.7500 Gmax 16.5316 1/A FBSC none
REM MP grid 5 3 1 Offset 0.000 0.000 0.000 No. kpts 8 Spacing 0.07
REM Total runtime: 102027 s
REM Overall efficiency: 95.6667 %
REM
REM
REM
REM compiler GCC version 4.9.2
REM options -cpp -iprefix /lustre/shared/ucl/apps/gcc/4.9.2/bin/../lib/gcc/x86_64-unknown-linux-gnu/4.9.2/ -mtune=corei7 -march=x86-64 -g -Og
REM COMMAND_LINE
REM seed -1174582789 -701661676 455427921 522950840 1298880710 1289513 1337507009 -346474534 -775326758 424355991 -1852923962 140634137
REM
REM S 3|1.8|5|6|7|30:31:32(qc=5)
REM O 2|1.5|12|13|15|20:21(qc=5)
REM Li 1|1.3|8|9|10|10U:20(qc=5)
REM Fe 3|2.2|2.0|1.0|8|9|10|40:41:32(qc=5)
REM Fe d:4.0 
REM
CELL 1.54180    3.48900    5.98561   16.56463   90.00000   90.00000   89.84012
LATT -1
SFAC Li O  S  Fe 
Li     1 -0.5194770000000 -0.1116300000000 -0.1265710000000 1.0  -0.06
Li     1 -0.5194770000000  0.3883700000000  0.1265710000000 1.0  -0.06
Li     1 -0.5656830000000 -0.1772060000000 -0.3890710000000 1.0  -0.02
Li     1 -0.5656830000000 -0.6772060000000  0.3890710000000 1.0  -0.02
O      2 -0.0601580000000  0.1874470000000  0.3801310000000 1.0   0.22
O      2 -0.0601580000000 -0.3125530000000 -0.3801310000000 1.0   0.22
O      2 -0.0157220000000  0.4688730000000  0.0861500000000 1.0   0.15
O      2 -0.0157220000000 -0.0311270000000 -0.0861500000000 1.0   0.15
S      3 -0.5003050000000 -0.0431410000000  0.0867630000000 1.0   0.16
S      3 -0.5003050000000  0.4568590000000 -0.0867630000000 1.0   0.16
S      3  0.5060710000000  0.1729700000000 -0.2794680000000 1.0   0.16
S      3  0.5060710000000  0.6729700000000  0.2794680000000 1.0   0.16
Fe     4  0.0200700000000 -0.0835700000000  0.3362050000000 1.0   3.75
Fe     4  0.0200700000000  0.4164300000000 -0.3362050000000 1.0   3.75
Fe     4 -0.0244900000000 -0.2947120000000 -0.0015730000000 1.0   3.81
Fe     4 -0.0244900000000  0.2052880000000  0.0015730000000 1.0   3.81
Fe     4  0.0175900000000  0.2721600000000 -0.1718880000000 1.0   3.83
Fe     4  0.0175900000000 -0.2278400000000  0.1718880000000 1.0   3.83
END
