TITL LFSO-Li4Fe3S3O2-201029-101441-aa088e -0.2458 463.560996 -1.03469188E+004 24.0000 24.2922 24 (Pc) n - 1
REM
REM Run started: Fri, 30 Oct 2020 03:00:41 +0000 in /scratch/scratch/uccabz1/launch_tmp/launcher_2020-10-30-02-04-55-116698
REM CASTEP 19.11| from code version Version unavailable
REM Functional Perdew Burke Ernzerhof Relativity Koelling-Harmon Dispersion off
REM Cut-off 340.0000 eV Grid scale 1.7500 Gmax 16.5316 1/A FBSC none
REM MP grid 4 2 3 Offset 0.000 0.000 0.000 No. kpts 6 Spacing 0.07
REM Total runtime: 54557.4 s
REM Overall efficiency: 92.8333 %
REM
REM
REM
REM compiler GCC version 4.9.2
REM options -cpp -iprefix /scratch/UCL/applications/gcc/4.9.2/bin/../lib/gcc/x86_64-unknown-linux-gnu/4.9.2/ -mtune=corei7 -march=x86-64 -g -O2
REM COMMAND_LINE
REM seed 1029261859 -1585292757 461377558 -895467588 700624166 -1801207386 2026796926 428703914 325723731 1499982666 -349058905 -1977280678
REM
REM S 3|1.8|5|6|7|30:31:32(qc=5)
REM O 2|1.5|12|13|15|20:21(qc=5)
REM Li 1|1.3|8|9|10|10U:20(qc=5)
REM Fe 3|2.2|2.0|1.0|8|9|10|40:41:32(qc=5)
REM Fe d:4.0 
REM
CELL 1.54180    3.77021   19.07392    9.91733  139.45921   90.00000   90.00000
LATT -1
SFAC Li O  S  Fe 
Li     1 -0.2699720000000  0.3123410000000  0.6125880000000 1.0  -0.02
Li     1  0.2699720000000 -0.1876590000000  0.1125880000000 1.0  -0.02
Li     1 -0.3245620000000  0.0221700000000  0.5412460000000 1.0  -0.02
Li     1  0.3245620000000  0.5221700000000  0.0412460000000 1.0  -0.02
Li     1 -0.3267000000000 -0.1938300000000  0.3508540000000 1.0  -0.01
Li     1  0.3267000000000  0.3061700000000 -0.1491460000000 1.0  -0.01
Li     1 -0.2794220000000  0.1712350000000  0.1721460000000 1.0  -0.06
Li     1  0.2794220000000 -0.3287650000000 -0.3278540000000 1.0  -0.06
O      2  0.3157760000000 -0.4773570000000  0.4146400000000 1.0   0.17
O      2 -0.3157760000000  0.0226430000000 -0.0853600000000 1.0   0.17
O      2 -0.1871940000000 -0.5268610000000 -0.4570160000000 1.0   0.20
O      2  0.1871940000000 -0.0268610000000  0.0429840000000 1.0   0.20
S      3 -0.2322920000000 -0.2295240000000 -0.0986980000000 1.0   0.06
S      3  0.2322920000000  0.2704760000000  0.4013020000000 1.0   0.06
S      3 -0.6782940000000 -0.3506370000000  0.0470060000000 1.0   0.07
S      3  0.6782940000000  0.1493630000000 -0.4529940000000 1.0   0.07
S      3  0.1749510000000 -0.0702430000000 -0.5029080000000 1.0   0.08
S      3 -0.1749510000000  0.4297570000000 -0.0029080000000 1.0   0.08
Fe     4  0.1798980000000  0.1112620000000  0.3469470000000 1.0   3.88
Fe     4 -0.1798980000000 -0.3887380000000 -0.1530530000000 1.0   3.88
Fe     4 -0.6887520000000  0.4283360000000 -0.5306070000000 1.0   3.83
Fe     4  0.6887520000000 -0.0716640000000 -0.0306070000000 1.0   3.83
Fe     4 -0.1890580000000  0.4979920000000  0.3240200000000 1.0   3.83
Fe     4  0.1890580000000 -0.0020080000000 -0.1759800000000 1.0   3.83
END
