TITL LFSO-Li5FeS2O2-201026-203352-e8ea90 -0.0259 245.360636 -3.34466478E+003 3.00001 3.60291 10 (Pm) n - 1
REM
REM Run started: Mon, 26 Oct 2020 21:35:16 +0000 in /scratch/scratch/uccabz1/launch_tmp/launcher_2020-10-26-20-33-50-828875
REM CASTEP 19.11| from code version Version unavailable
REM Functional Perdew Burke Ernzerhof Relativity Koelling-Harmon Dispersion off
REM Cut-off 340.0000 eV Grid scale 1.7500 Gmax 16.5316 1/A FBSC none
REM MP grid 5 2 3 Offset 0.000 0.000 0.000 No. kpts 8 Spacing 0.07
REM Total runtime: 3952.64 s
REM Overall efficiency: 76.1538 %
REM
REM
REM
REM compiler GCC version 4.9.2
REM options -cpp -iprefix /scratch/UCL/applications/gcc/4.9.2/bin/../lib/gcc/x86_64-unknown-linux-gnu/4.9.2/ -mtune=corei7 -march=x86-64 -g -O2
REM COMMAND_LINE
REM seed 930852754 664212932 -1414994012 -1951384594 819045007 -1694326655 -828381701 37230488 -905647356 -29592725 2124978571 1352945731
REM
REM S 3|1.8|5|6|7|30:31:32(qc=5)
REM O 2|1.5|12|13|15|20:21(qc=5)
REM Li 1|1.3|8|9|10|10U:20(qc=5)
REM Fe 3|2.2|2.0|1.0|8|9|10|40:41:32(qc=5)
REM Fe d:4.0 
REM
CELL 1.54180    3.85482   11.23621    6.29664   90.00000  115.88833   90.00000
LATT -1
SFAC Li O  S  Fe 
Li     1  0.1180160000000 -0.1830310000000  0.3349790000000 1.0   0.01
Li     1  0.1180160000000  0.1830310000000  0.3349790000000 1.0   0.01
Li     1 -0.2182510000000 -0.2151000000000 -0.1588220000000 1.0   0.00
Li     1 -0.2182510000000  0.2151000000000 -0.1588220000000 1.0   0.00
Li     1 -0.4116860000000  0.0000000000000  0.4417560000000 1.0  -0.03
O      2  0.4392350000000  0.1167180000000 -0.3877460000000 1.0   0.00
O      2  0.4392350000000 -0.1167180000000 -0.3877460000000 1.0   0.00
S      3 -0.5504170000000  0.1609600000000  0.0818000000000 1.0  -0.10
S      3 -0.5504170000000 -0.1609600000000  0.0818000000000 1.0  -0.10
Fe     4 -0.5829880000000  0.0000000000000 -0.1829750000000 1.0   3.22
END
