TITL LFSO-Li2Fe2S2O-201022-061220-c8dae3 0.1885 265.684120 -6.33347127E+003 13.8782 14.1618 14 (Pmc21) n - 1
REM
REM Run started: Thu, 22 Oct 2020 10:36:56 +0100 in /scratch/scratch/uccabz1/launch_tmp/launcher_2020-10-22-05-12-19-161077
REM CASTEP 19.11| from code version Version unavailable
REM Functional Perdew Burke Ernzerhof Relativity Koelling-Harmon Dispersion off
REM Cut-off 340.0000 eV Grid scale 1.7500 Gmax 16.5316 1/A FBSC none
REM MP grid 4 3 2 Offset 0.000 0.000 0.000 No. kpts 4 Spacing 0.07
REM Total runtime: 17576.9 s
REM Overall efficiency: 87.3077 %
REM
REM
REM
REM compiler GCC version 4.9.2
REM options -cpp -iprefix /scratch/UCL/applications/gcc/4.9.2/bin/../lib/gcc/x86_64-unknown-linux-gnu/4.9.2/ -mtune=corei7 -march=x86-64 -g -O2
REM COMMAND_LINE
REM seed 631933150 1321587182 847112107 -1393372115 1904897183 140163029 1635444445 254576531 -206303187 1486766354 845743149 351316884
REM
REM S 3|1.8|5|6|7|30:31:32(qc=5)
REM O 2|1.5|12|13|15|20:21(qc=5)
REM Li 1|1.3|8|9|10|10U:20(qc=5)
REM Fe 3|2.2|2.0|1.0|8|9|10|40:41:32(qc=5)
REM Fe d:4.0 
REM
CELL 1.54180    3.74616    5.56287   12.74912   90.00000   90.00000   90.00000
LATT -1
SFAC Li O  S  Fe 
Li     1  0.4824910000000 -0.2735070000000  0.3451190000000 1.0   0.01
Li     1 -0.4824910000000  0.2735070000000 -0.1548810000000 1.0   0.01
Li     1 -0.4824910000000 -0.2735070000000 -0.1548810000000 1.0   0.01
Li     1  0.4824910000000  0.2735070000000  0.3451190000000 1.0   0.01
O      2 -0.6068510000000 -0.5000000000000 -0.0508730000000 1.0   0.06
O      2  0.6068510000000 -0.5000000000000  0.4491270000000 1.0   0.06
S      3  0.0110110000000 -0.3046210000000  0.2273570000000 1.0   0.02
S      3 -0.0110110000000  0.3046210000000 -0.2726430000000 1.0   0.02
S      3 -0.0110110000000 -0.3046210000000 -0.2726430000000 1.0   0.02
S      3  0.0110110000000  0.3046210000000  0.2273570000000 1.0   0.02
Fe     4  0.2727170000000 -0.2655500000000  0.0582940000000 1.0   3.42
Fe     4 -0.2727170000000  0.2655500000000 -0.4417060000000 1.0   3.42
Fe     4 -0.2727170000000 -0.2655500000000 -0.4417060000000 1.0   3.42
Fe     4  0.2727170000000  0.2655500000000  0.0582940000000 1.0   3.42
END
