TITL LFSO-Li4Fe3S4O-201028-213424-fd1da8 0.0169 319.726894 -5.03622836E+003 3.99949 11.9470 12 (I-4) n - 1
REM
REM Run started: Thu, 29 Oct 2020 05:53:11 +0000 in /lustre/scratch/uccabz1/launch_tmp/launcher_2020-10-28-23-43-10-107746
REM CASTEP 20.1 from code version af48c487+ pr-geom-scf-spinfix Tue Jun 2 15:39:59 2020 +0100
REM Functional Perdew Burke Ernzerhof Relativity Koelling-Harmon Dispersion off
REM Cut-off 340.0000 eV Grid scale 1.7500 Gmax 16.5316 1/A FBSC none
REM MP grid 4 3 3 Offset 0.000 0.000 0.000 No. kpts 18 Spacing 0.07
REM Total runtime: 27242.1 s
REM Overall efficiency: 94.7273 %
REM
REM
REM
REM compiler GCC version 4.9.2
REM options -cpp -iprefix /lustre/shared/ucl/apps/gcc/4.9.2/bin/../lib/gcc/x86_64-unknown-linux-gnu/4.9.2/ -mtune=corei7 -march=x86-64 -g -Og
REM COMMAND_LINE
REM seed -126468579 1539307423 1762713074 -2081477458 679117313 -1974235448 1789121898 1175475307 2012174995 -1550785540 846568318 -492400981
REM
REM S 3|1.8|5|6|7|30:31:32(qc=5)
REM O 2|1.5|12|13|15|20:21(qc=5)
REM Li 1|1.3|8|9|10|10U:20(qc=5)
REM Fe 3|2.2|2.0|1.0|8|9|10|40:41:32(qc=5)
REM Fe d:4.0 
REM
CELL 1.54180   11.02047   11.02047   11.02047   41.90930  150.70378  150.70378
LATT -1
SFAC Li O  S  Fe 
Li     1  0.0801660000000  0.2564390000000 -0.0518720000000 1.0  -0.02
Li     1 -0.0801660000000 -0.1320380000000  0.1762730000000 1.0  -0.02
Li     1 -0.3083100000000 -0.1762730000000 -0.2564390000000 1.0  -0.02
Li     1  0.3083100000000  0.0518720000000  0.1320380000000 1.0  -0.02
O      2 -0.0000000000000  0.0000000000000 -0.0000000000000 1.0   0.02
S      3  0.0601060000000 -0.5409440000000 -0.0644020000000 1.0   0.09
S      3 -0.0601060000000 -0.1245080000000  0.3989500000000 1.0   0.09
S      3  0.4765410000000 -0.3989500000000  0.5409440000000 1.0   0.09
S      3 -0.4765410000000  0.0644020000000  0.1245080000000 1.0   0.09
Fe     4  0.5000000000000  0.1784760000000 -0.3215240000000 1.0   3.73
Fe     4 -0.5000000000000  0.3215240000000 -0.1784760000000 1.0   3.73
Fe     4  0.5000000000000 -0.2500000000000  0.2500000000000 1.0  -3.79
END
