TITL LFSO-Li3FeS2O-201024-233908-6206df 0.0053 129.193251 -2.50307552E+003 -3.09629 4.77630 7 (P3) n - 1
REM
REM Run started: Sun, 25 Oct 2020 00:34:40 +0100 in /lustre/scratch/uccabz1/launch_tmp/launcher_2020-10-24-22-39-07-046866
REM CASTEP 20.1 from code version af48c487+ pr-geom-scf-spinfix Tue Jun 2 15:39:59 2020 +0100
REM Functional Perdew Burke Ernzerhof Relativity Koelling-Harmon Dispersion off
REM Cut-off 340.0000 eV Grid scale 1.7500 Gmax 16.5316 1/A FBSC none
REM MP grid 4 4 2 Offset 0.000 0.000 0.000 No. kpts 16 Spacing 0.07
REM Total runtime: 3568.81 s
REM Overall efficiency: 89.1111 %
REM
REM
REM
REM compiler GCC version 4.9.2
REM options -cpp -iprefix /lustre/shared/ucl/apps/gcc/4.9.2/bin/../lib/gcc/x86_64-unknown-linux-gnu/4.9.2/ -mtune=corei7 -march=x86-64 -g -Og
REM COMMAND_LINE
REM seed 452532355 2073747792 1399302798 1477622656 -697126318 -891343549 -1761382485 -1922270927 -1746709240 1183684513 -1517200707 -1013576620
REM
REM S 3|1.8|5|6|7|30:31:32(qc=5)
REM O 2|1.5|12|13|15|20:21(qc=5)
REM Li 1|1.3|8|9|10|10U:20(qc=5)
REM Fe 3|2.2|2.0|1.0|8|9|10|40:41:32(qc=5)
REM Fe d:4.0 
REM
CELL 1.54180    4.48913    4.48913    7.40260   90.00000   90.00000  120.00000
LATT -1
SFAC Li O  S  Fe 
Li     1  0.3602080000000  0.3281040000000 -0.0956590000000 1.0   0.04
Li     1 -0.0321040000000 -0.3602080000000 -0.0956590000000 1.0   0.04
Li     1 -0.3281040000000  0.0321040000000 -0.0956590000000 1.0   0.04
O      2 -0.3333330000000  0.3333330000000 -0.2429840000000 1.0   0.05
S      3  0.3333330000000 -0.3333330000000  0.1127460000000 1.0   0.31
S      3  0.3333330000000 -0.3333330000000  0.4714690000000 1.0   0.42
Fe     4  0.0000000000000 -0.0000000000000  0.5127080000000 1.0  -4.01
END
