TITL LFSO-Li5FeSO3-201027-004931-fe0f71 -0.0124 126.225451 -3.47938862E+003 4.59310 4.63500 10 (P2) n - 1
REM
REM Run started: Tue, 27 Oct 2020 01:46:32 +0000 in /scratch/scratch/uccabz1/launch_tmp/launcher_2020-10-27-00-51-48-656107
REM CASTEP 19.11| from code version Version unavailable
REM Functional Perdew Burke Ernzerhof Relativity Koelling-Harmon Dispersion off
REM Cut-off 340.0000 eV Grid scale 1.7500 Gmax 16.5316 1/A FBSC none
REM MP grid 5 4 2 Offset 0.000 0.000 0.000 No. kpts 12 Spacing 0.07
REM Total runtime: 3631.25 s
REM Overall efficiency: 79.5 %
REM
REM
REM
REM compiler GCC version 4.9.2
REM options -cpp -iprefix /scratch/UCL/applications/gcc/4.9.2/bin/../lib/gcc/x86_64-unknown-linux-gnu/4.9.2/ -mtune=corei7 -march=x86-64 -g -O2
REM COMMAND_LINE
REM seed -126030932 -1938014153 301971514 1073544881 103788865 -1279054101 -2069314705 -126340164 1279720431 -1255404965 594361697 2114241608
REM
REM S 3|1.8|5|6|7|30:31:32(qc=5)
REM O 2|1.5|12|13|15|20:21(qc=5)
REM Li 1|1.3|8|9|10|10U:20(qc=5)
REM Fe 3|2.2|2.0|1.0|8|9|10|40:41:32(qc=5)
REM Fe d:4.0 
REM
CELL 1.54180    3.07961    3.94167   10.42056   93.72690   90.00000   90.00000
LATT -1
SFAC Li O  S  Fe 
Li     1  0.3127440000000 -0.4799620000000 -0.3858650000000 1.0  -0.05
Li     1  0.3127440000000  0.4799620000000  0.3858650000000 1.0  -0.05
Li     1 -0.1495350000000 -0.0267760000000  0.2362860000000 1.0   0.01
Li     1 -0.1495350000000  0.0267760000000 -0.2362860000000 1.0   0.01
Li     1 -0.6316290000000 -0.5000000000000  0.0000000000000 1.0  -0.00
O      2  0.3372950000000 -0.0265180000000  0.3456820000000 1.0   0.18
O      2  0.3372950000000  0.0265180000000 -0.3456820000000 1.0   0.18
O      2 -0.1789550000000  0.5000000000000 -0.5000000000000 1.0   0.24
S      3 -0.1316570000000  0.0000000000000  0.0000000000000 1.0   0.00
Fe     4 -0.1884320000000  0.0000000000000  0.5000000000000 1.0   4.06
END
