TITL LFSO-Li2Fe2S2O-201023-182349-c5edc4 -0.0526 137.939958 -3.16291012E+003 8.08654 8.17993 7 (Immm) n - 1
REM
REM Run started: Fri, 23 Oct 2020 18:58:18 +0100 in /lustre/scratch/uccabz1/launch_tmp/launcher_2020-10-23-17-23-48-251085
REM CASTEP 20.1 from code version af48c487+ pr-geom-scf-spinfix Tue Jun 2 15:39:59 2020 +0100
REM Functional Perdew Burke Ernzerhof Relativity Koelling-Harmon Dispersion off
REM Cut-off 340.0000 eV Grid scale 1.7500 Gmax 16.5316 1/A FBSC none
REM MP grid 4 3 4 Offset 0.000 0.000 0.000 No. kpts 24 Spacing 0.07
REM Total runtime: 2211.77 s
REM Overall efficiency: 79 %
REM
REM
REM
REM compiler GCC version 4.9.2
REM options -cpp -iprefix /lustre/shared/ucl/apps/gcc/4.9.2/bin/../lib/gcc/x86_64-unknown-linux-gnu/4.9.2/ -mtune=corei7 -march=x86-64 -g -Og
REM COMMAND_LINE
REM seed -975104977 2081103562 713620995 -13617331 -1322610860 799759189 -314596218 -1091796281 809192370 -27559194 -448960482 958548471
REM
REM S 3|1.8|5|6|7|30:31:32(qc=5)
REM O 2|1.5|12|13|15|20:21(qc=5)
REM Li 1|1.3|8|9|10|10U:20(qc=5)
REM Fe 3|2.2|2.0|1.0|8|9|10|40:41:32(qc=5)
REM Fe d:4.0 
REM
CELL 1.54180    6.21044    6.21044    6.21044   97.06109  142.53916   94.77846
LATT -1
SFAC Li O  S  Fe 
Li     1  0.2424200000000 -0.5000000000000 -0.2575800000000 1.0  -0.02
Li     1 -0.2424200000000  0.5000000000000  0.2575800000000 1.0  -0.02
O      2  0.0000000000000  0.0000000000000  0.0000000000000 1.0   0.33
S      3 -0.5000000000000 -0.2666230000000  0.2333770000000 1.0   0.09
S      3  0.5000000000000  0.2666230000000 -0.2333770000000 1.0   0.09
Fe     4 -0.3599280000000  0.1400720000000  0.5000000000000 1.0   3.80
Fe     4  0.3599280000000 -0.1400720000000 -0.5000000000000 1.0   3.80
END
