TITL LFSO-Li4Fe2S3O-201026-173329-350f72 0.0224 211.835135 -3.87134204E+003 7.99910 8.10808 10 (Fmm2) n - 1
REM
REM Run started: Mon, 26 Oct 2020 18:32:11 +0000 in /lustre/scratch/uccabz1/launch_tmp/launcher_2020-10-26-17-33-27-472130
REM CASTEP 20.1 from code version af48c487+ pr-geom-scf-spinfix Tue Jun 2 15:39:59 2020 +0100
REM Functional Perdew Burke Ernzerhof Relativity Koelling-Harmon Dispersion off
REM Cut-off 340.0000 eV Grid scale 1.7500 Gmax 16.5316 1/A FBSC none
REM MP grid 3 3 4 Offset 0.000 0.000 0.000 No. kpts 12 Spacing 0.07
REM Total runtime: 3569.98 s
REM Overall efficiency: 72.1429 %
REM
REM
REM
REM compiler GCC version 4.9.2
REM options -cpp -iprefix /lustre/shared/ucl/apps/gcc/4.9.2/bin/../lib/gcc/x86_64-unknown-linux-gnu/4.9.2/ -mtune=corei7 -march=x86-64 -g -Og
REM COMMAND_LINE
REM seed 937625878 914152297 763239809 919814913 -1608689809 1232552562 1129312636 1526962782 1184130876 -789746494 -1118864010 808280739
REM
REM S 3|1.8|5|6|7|30:31:32(qc=5)
REM O 2|1.5|12|13|15|20:21(qc=5)
REM Li 1|1.3|8|9|10|10U:20(qc=5)
REM Fe 3|2.2|2.0|1.0|8|9|10|40:41:32(qc=5)
REM Fe d:4.0 
REM
CELL 1.54180    8.15332    8.15332    8.00593  140.41325  140.41325   59.10539
LATT -1
SFAC Li O  S  Fe 
Li     1  0.0782150000000  0.3794750000000  0.2781770000000 1.0  -0.04
Li     1  0.1999630000000 -0.1012980000000  0.2781770000000 1.0  -0.04
Li     1 -0.1012980000000  0.1999630000000  0.2781770000000 1.0  -0.04
Li     1  0.3794750000000  0.0782150000000  0.2781770000000 1.0  -0.04
O      2  0.1548800000000  0.1548800000000  0.3097610000000 1.0   0.04
S      3 -0.2103140000000 -0.2103140000000  0.0219940000000 1.0   0.14
S      3  0.2323080000000  0.2323080000000  0.0219940000000 1.0   0.14
S      3 -0.3679070000000 -0.3679070000000  0.2641860000000 1.0   0.14
Fe     4 -0.4338740000000 -0.4338740000000  0.4461690000000 1.0   3.86
Fe     4 -0.1199570000000 -0.1199570000000  0.4461690000000 1.0   3.86
END
