TITL LFSO-Li2FeSO-201023-082630-08d2f6 0.0575 286.036938 -6.00391576E+003 -11.3261 11.5712 15 (Pmm2) n - 1
REM
REM Run started: Fri, 23 Oct 2020 09:31:43 +0100 in /lustre/scratch/uccabz1/launch_tmp/launcher_2020-10-23-07-26-29-307967
REM CASTEP 20.1 from code version af48c487+ pr-geom-scf-spinfix Tue Jun 2 15:39:59 2020 +0100
REM Functional Perdew Burke Ernzerhof Relativity Koelling-Harmon Dispersion off
REM Cut-off 340.0000 eV Grid scale 1.7500 Gmax 16.5316 1/A FBSC none
REM MP grid 3 3 2 Offset 0.000 0.000 0.000 No. kpts 4 Spacing 0.07
REM Total runtime: 3971.93 s
REM Overall efficiency: 74 %
REM
REM
REM
REM compiler GCC version 4.9.2
REM options -cpp -iprefix /lustre/shared/ucl/apps/gcc/4.9.2/bin/../lib/gcc/x86_64-unknown-linux-gnu/4.9.2/ -mtune=corei7 -march=x86-64 -g -Og
REM COMMAND_LINE
REM seed -1675376014 211789001 -1780459149 420171693 -1807954531 1532073843 741967209 -1273295142 -857993054 1832078969 -354614837 -2075864474
REM
REM S 3|1.8|5|6|7|30:31:32(qc=5)
REM O 2|1.5|12|13|15|20:21(qc=5)
REM Li 1|1.3|8|9|10|10U:20(qc=5)
REM Fe 3|2.2|2.0|1.0|8|9|10|40:41:32(qc=5)
REM Fe d:4.0 
REM
CELL 1.54180    5.90411    6.06687    7.98552   90.00000   90.00000   90.00000
LATT -1
SFAC Li O  S  Fe 
Li     1  0.2339280000000 -0.2519930000000  0.1589580000000 1.0   0.01
Li     1  0.2339280000000  0.2519930000000 -0.1589580000000 1.0   0.01
Li     1  0.2339280000000 -0.2519930000000 -0.1589580000000 1.0   0.01
Li     1  0.2339280000000  0.2519930000000  0.1589580000000 1.0   0.01
Li     1 -0.3610650000000  0.0000000000000  0.1465440000000 1.0   0.03
Li     1 -0.3610650000000  0.0000000000000 -0.1465440000000 1.0   0.03
O      2  0.2008550000000 -0.5000000000000  0.3225580000000 1.0  -0.18
O      2  0.2008550000000 -0.5000000000000 -0.3225580000000 1.0  -0.18
O      2 -0.6384610000000  0.0000000000000  0.0000000000000 1.0  -0.02
S      3 -0.1189090000000  0.2390760000000  0.0000000000000 1.0  -0.01
S      3 -0.1189090000000 -0.2390760000000  0.0000000000000 1.0  -0.01
S      3 -0.3410270000000  0.5000000000000  0.0000000000000 1.0  -0.01
Fe     4  0.1679230000000  0.2709440000000  0.5000000000000 1.0  -3.88
Fe     4  0.1679230000000 -0.2709440000000 -0.5000000000000 1.0  -3.88
Fe     4  0.5764480000000  0.0000000000000 -0.5000000000000 1.0  -3.25
END
