TITL LFSO-Li4Fe2S3O-201026-213148-916838 -0.0139 647.537139 -7.74488214E+003 16.0000 16.3931 20 (Fmm2) n - 1
REM
REM Run started: Tue, 27 Oct 2020 16:05:23 +0000 in /lustre/scratch/uccabz1/launch_tmp/launcher_2020-10-26-21-31-46-471769
REM CASTEP 20.1 from code version af48c487+ pr-geom-scf-spinfix Tue Jun 2 15:39:59 2020 +0100
REM Functional Perdew Burke Ernzerhof Relativity Koelling-Harmon Dispersion off
REM Cut-off 340.0000 eV Grid scale 1.7500 Gmax 16.5316 1/A FBSC none
REM MP grid 2 2 2 Offset 0.000 0.000 0.000 No. kpts 3 Spacing 0.07
REM Total runtime: 46537.3 s
REM Overall efficiency: 86.4167 %
REM
REM
REM
REM compiler GCC version 4.9.2
REM options -cpp -iprefix /lustre/shared/ucl/apps/gcc/4.9.2/bin/../lib/gcc/x86_64-unknown-linux-gnu/4.9.2/ -mtune=corei7 -march=x86-64 -g -Og
REM COMMAND_LINE
REM seed -853609850 -1024284187 -1537377550 -1207926964 209386992 842554135 -2127562834 1482365761 249595630 544830112 223018744 -1489207943
REM
REM S 3|1.8|5|6|7|30:31:32(qc=5)
REM O 2|1.5|12|13|15|20:21(qc=5)
REM Li 1|1.3|8|9|10|10U:20(qc=5)
REM Fe 3|2.2|2.0|1.0|8|9|10|40:41:32(qc=5)
REM Fe d:4.0 
REM
CELL 1.54180    8.83378    8.83378   10.35867  114.83289  114.83289   90.86296
LATT -1
SFAC Li O  S  Fe 
Li     1  0.1168700000000 -0.1607010000000  0.5125050000000 1.0   0.01
Li     1  0.3267950000000 -0.3956350000000 -0.5125050000000 1.0   0.01
Li     1 -0.1607010000000  0.1168700000000  0.5125050000000 1.0   0.01
Li     1 -0.3956350000000  0.3267950000000 -0.5125050000000 1.0   0.01
Li     1 -0.1963300000000  0.4021270000000  0.1572140000000 1.0  -0.01
Li     1  0.2449120000000 -0.3535440000000 -0.1572140000000 1.0  -0.01
Li     1  0.4021270000000 -0.1963300000000  0.1572140000000 1.0  -0.01
Li     1 -0.3535440000000  0.2449120000000 -0.1572140000000 1.0  -0.01
O      2 -0.4104570000000  0.2447960000000  0.0000000000000 1.0   0.18
O      2  0.2447960000000 -0.4104570000000  0.0000000000000 1.0   0.18
S      3 -0.2121480000000  0.3178090000000 -0.2732670000000 1.0   0.12
S      3 -0.4089240000000  0.0611190000000  0.2732670000000 1.0   0.12
S      3  0.3178090000000 -0.2121480000000 -0.2732670000000 1.0   0.12
S      3  0.0611190000000 -0.4089240000000  0.2732670000000 1.0   0.12
S      3 -0.4942980000000 -0.4942980000000  0.3444070000000 1.0   0.15
S      3  0.1612950000000  0.1612950000000 -0.3444070000000 1.0   0.15
Fe     4  0.3719370000000  0.0781240000000 -0.1712130000000 1.0   3.72
Fe     4  0.2493370000000 -0.4568500000000  0.1712130000000 1.0   3.72
Fe     4  0.0781240000000  0.3719370000000 -0.1712130000000 1.0   3.72
Fe     4 -0.4568500000000  0.2493370000000  0.1712130000000 1.0   3.72
END
