TITL LFSO-Li2FeSO-201025-080514-218b53 -0.0091 76.641778 -1.99861030E+003 3.99204 4.13483 5 (I-4m2) n - 1
REM
REM Run started: Sun, 25 Oct 2020 08:14:36 +0000 in /lustre/scratch/uccabz1/launch_tmp/launcher_2020-10-25-08-05-12-526075
REM CASTEP 20.1 from code version af48c487+ pr-geom-scf-spinfix Tue Jun 2 15:39:59 2020 +0100
REM Functional Perdew Burke Ernzerhof Relativity Koelling-Harmon Dispersion off
REM Cut-off 340.0000 eV Grid scale 1.7500 Gmax 16.5316 1/A FBSC none
REM MP grid 4 4 6 Offset 0.000 0.000 0.000 No. kpts 28 Spacing 0.07
REM Total runtime: 587.28 s
REM Overall efficiency: 71 %
REM
REM
REM
REM compiler GCC version 4.9.2
REM options -cpp -iprefix /lustre/shared/ucl/apps/gcc/4.9.2/bin/../lib/gcc/x86_64-unknown-linux-gnu/4.9.2/ -mtune=corei7 -march=x86-64 -g -Og
REM COMMAND_LINE
REM seed -566000270 -179701910 291123386 -606371276 1343983026 -50018277 489045467 1460010469 -570153466 -269138039 -796049170 749346177
REM
REM S 3|1.8|5|6|7|30:31:32(qc=5)
REM O 2|1.5|12|13|15|20:21(qc=5)
REM Li 1|1.3|8|9|10|10U:20(qc=5)
REM Fe 3|2.2|2.0|1.0|8|9|10|40:41:32(qc=5)
REM Fe d:4.0 
REM
CELL 1.54180    5.38958    5.38958    4.63524  125.54700  125.54700   90.00000
LATT -1
SFAC Li O  S  Fe 
Li     1 -0.1944770000000 -0.1944770000000 -0.3889540000000 1.0  -0.10
Li     1  0.1944770000000  0.1944770000000  0.3889540000000 1.0  -0.10
O      2  0.5000000000000  0.5000000000000 -0.0000000000000 1.0   0.37
S      3  0.2500000000000 -0.2500000000000  0.5000000000000 1.0   0.17
Fe     4 -0.2500000000000  0.2500000000000 -0.5000000000000 1.0   3.66
END
