TITL LFSO-LiFe3S4O-201028-135916-794ba4 0.1802 189.981964 -4.43721705E+003 11.6349 11.8846 9 (C2/m) n - 1
REM
REM Run started: Wed, 28 Oct 2020 21:34:40 +0000 in /scratch/scratch/uccabz1/launch_tmp/launcher_2020-10-28-13-59-14-778141
REM CASTEP 19.11| from code version Version unavailable
REM Functional Perdew Burke Ernzerhof Relativity Koelling-Harmon Dispersion off
REM Cut-off 340.0000 eV Grid scale 1.7500 Gmax 16.5316 1/A FBSC none
REM MP grid 4 6 2 Offset 0.000 0.000 0.000 No. kpts 24 Spacing 0.07
REM Total runtime: 36344.2 s
REM Overall efficiency: 89.3077 %
REM
REM
REM
REM compiler GCC version 4.9.2
REM options -cpp -iprefix /scratch/UCL/applications/gcc/4.9.2/bin/../lib/gcc/x86_64-unknown-linux-gnu/4.9.2/ -mtune=corei7 -march=x86-64 -g -O2
REM COMMAND_LINE
REM seed 1242686752 1583417426 880073578 -1210971943 -783321714 116137173 1210090790 -253392906 -788974150 1890229258 -1167714741 -398788195
REM
REM S 3|1.8|5|6|7|30:31:32(qc=5)
REM O 2|1.5|12|13|15|20:21(qc=5)
REM Li 1|1.3|8|9|10|10U:20(qc=5)
REM Fe 3|2.2|2.0|1.0|8|9|10|40:41:32(qc=5)
REM Fe d:4.0 
REM
CELL 1.54180    7.84375    4.68945    9.82044  103.65720  106.39891   33.24654
LATT -1
SFAC Li O  S  Fe 
Li     1  0.5000000000000  0.0000000000000 -0.5000000000000 1.0  -0.06
O      2 -0.0000000000000  0.0000000000000 -0.5000000000000 1.0   0.24
S      3  0.0832810000000  0.5195860000000 -0.1972050000000 1.0   0.05
S      3  0.3971330000000  0.5195860000000  0.1972050000000 1.0   0.05
S      3 -0.0832810000000 -0.5195860000000  0.1972050000000 1.0   0.05
S      3 -0.3971330000000 -0.5195860000000 -0.1972050000000 1.0   0.05
Fe     4  0.0642360000000  0.0000000000000 -0.2967940000000 1.0   3.82
Fe     4 -0.0642360000000  0.0000000000000  0.2967940000000 1.0   3.82
Fe     4  0.5000000000000  0.0000000000000  0.0000000000000 1.0   3.60
END
