TITL LFSO-LiFe3S4O-201028-112124-202576 0.0460 368.404440 -8.87664463E+003 23.9990 24.1949 18 (Cmcm) n - 1
REM
REM Run started: Wed, 28 Oct 2020 14:10:28 +0000 in /lustre/scratch/uccabz1/launch_tmp/launcher_2020-10-28-11-21-22-671323
REM CASTEP 20.1 from code version af48c487+ pr-geom-scf-spinfix Tue Jun 2 15:39:59 2020 +0100
REM Functional Perdew Burke Ernzerhof Relativity Koelling-Harmon Dispersion off
REM Cut-off 340.0000 eV Grid scale 1.7500 Gmax 16.5316 1/A FBSC none
REM MP grid 4 2 2 Offset 0.000 0.000 0.000 No. kpts 4 Spacing 0.07
REM Total runtime: 10811.1 s
REM Overall efficiency: 77.7 %
REM
REM
REM
REM compiler GCC version 4.9.2
REM options -cpp -iprefix /lustre/shared/ucl/apps/gcc/4.9.2/bin/../lib/gcc/x86_64-unknown-linux-gnu/4.9.2/ -mtune=corei7 -march=x86-64 -g -Og
REM COMMAND_LINE
REM seed 2073268573 -2125107630 -2094750972 -603092423 217711063 -643386876 1352409649 166079773 771952846 692530874 1457282536 1419096496
REM
REM S 3|1.8|5|6|7|30:31:32(qc=5)
REM O 2|1.5|12|13|15|20:21(qc=5)
REM Li 1|1.3|8|9|10|10U:20(qc=5)
REM Fe 3|2.2|2.0|1.0|8|9|10|40:41:32(qc=5)
REM Fe d:4.0 
REM
CELL 1.54180    3.93663    9.31342   10.23923   90.00000  101.08310   90.00000
LATT -1
SFAC Li O  S  Fe 
Li     1 -0.1637740000000 -0.2500000000000 -0.3275470000000 1.0  -0.01
Li     1  0.1637740000000  0.2500000000000  0.3275470000000 1.0  -0.01
O      2 -0.4456970000000 -0.2500000000000  0.1086050000000 1.0   0.16
O      2  0.4456970000000  0.2500000000000 -0.1086050000000 1.0   0.16
S      3  0.7342370000000  0.0281550000000  0.4541220000000 1.0   0.03
S      3 -0.7342370000000 -0.4718450000000 -0.4541220000000 1.0   0.03
S      3 -0.2801150000000  0.4718450000000  0.4541220000000 1.0   0.03
S      3  0.2801150000000 -0.0281550000000 -0.4541220000000 1.0   0.03
S      3 -0.0779330000000 -0.0630890000000 -0.1622690000000 1.0   0.13
S      3  0.0779330000000  0.4369110000000  0.1622690000000 1.0   0.13
S      3 -0.0843370000000 -0.4369110000000 -0.1622690000000 1.0   0.13
S      3  0.0843370000000  0.0630890000000  0.1622690000000 1.0   0.13
Fe     4 -0.6110320000000  0.4376060000000 -0.2149780000000 1.0   3.82
Fe     4  0.6110320000000 -0.0623940000000  0.2149780000000 1.0   3.82
Fe     4  0.3960550000000  0.0623940000000 -0.2149780000000 1.0   3.82
Fe     4 -0.3960550000000 -0.4376060000000  0.2149780000000 1.0   3.82
Fe     4  0.0107330000000 -0.2500000000000  0.0214660000000 1.0   3.88
Fe     4 -0.0107330000000  0.2500000000000 -0.0214660000000 1.0   3.88
END
