TITL LFSO-Li2FeSO-201023-074331-7519a9 0.0028 227.501919 -4.00695282E+003 8.00000 8.07613 10 (Cm) n - 1
REM
REM Run started: Fri, 23 Oct 2020 08:23:06 +0100 in /lustre/scratch/uccabz1/launch_tmp/launcher_2020-10-23-06-43-29-394145
REM CASTEP 20.1 from code version af48c487+ pr-geom-scf-spinfix Tue Jun 2 15:39:59 2020 +0100
REM Functional Perdew Burke Ernzerhof Relativity Koelling-Harmon Dispersion off
REM Cut-off 340.0000 eV Grid scale 1.7500 Gmax 16.5316 1/A FBSC none
REM MP grid 4 2 2 Offset 0.000 0.000 0.000 No. kpts 6 Spacing 0.07
REM Total runtime: 2566.65 s
REM Overall efficiency: 81.5714 %
REM
REM
REM
REM compiler GCC version 4.9.2
REM options -cpp -iprefix /lustre/shared/ucl/apps/gcc/4.9.2/bin/../lib/gcc/x86_64-unknown-linux-gnu/4.9.2/ -mtune=corei7 -march=x86-64 -g -Og
REM COMMAND_LINE
REM seed 1107322305 102533534 -143104361 314934959 842507068 -1115205039 -1484918418 202502815 -1829867025 -1360250675 1246303661 -776718296
REM
REM S 3|1.8|5|6|7|30:31:32(qc=5)
REM O 2|1.5|12|13|15|20:21(qc=5)
REM Li 1|1.3|8|9|10|10U:20(qc=5)
REM Fe 3|2.2|2.0|1.0|8|9|10|40:41:32(qc=5)
REM Fe d:4.0 
REM
CELL 1.54180    3.71172    7.92717    7.92717   77.26682   90.32511   90.32511
LATT -1
SFAC Li O  S  Fe 
Li     1 -0.1333310000000  0.3971860000000 -0.2662860000000 1.0   0.00
Li     1 -0.1333310000000 -0.2662860000000  0.3971860000000 1.0   0.00
Li     1 -0.6293030000000 -0.0415540000000  0.3388390000000 1.0  -0.02
Li     1 -0.6293030000000  0.3388390000000 -0.0415540000000 1.0  -0.02
O      2  0.3537890000000  0.3222740000000 -0.2640530000000 1.0   0.14
O      2  0.3537890000000 -0.2640530000000  0.3222740000000 1.0   0.14
S      3 -0.1380040000000  0.0243370000000 -0.4988150000000 1.0   0.09
S      3 -0.1380040000000 -0.4988150000000  0.0243370000000 1.0   0.09
Fe     4  0.3695010000000  0.6068960000000  0.1532020000000 1.0   3.79
Fe     4  0.3695010000000  0.1532020000000  0.6068960000000 1.0   3.79
END
