TITL LFSO-Li4Fe3S4O-201030-002635-0d7dd0 -0.2068 478.221171 -1.00725705E+004 21.9920 23.0128 24 (R3) n - 1
REM
REM Run started: Fri, 30 Oct 2020 15:53:11 +0000 in /lustre/scratch/uccabz1/launch_tmp/launcher_2020-10-30-11-08-18-238510
REM CASTEP 20.1 from code version af48c487+ pr-geom-scf-spinfix Tue Jun 2 15:39:59 2020 +0100
REM Functional Perdew Burke Ernzerhof Relativity Koelling-Harmon Dispersion off
REM Cut-off 340.0000 eV Grid scale 1.7500 Gmax 16.5316 1/A FBSC none
REM MP grid 3 3 2 Offset 0.000 0.000 0.000 No. kpts 7 Spacing 0.07
REM Total runtime: 59283.5 s
REM Overall efficiency: 98.1667 %
REM
REM
REM
REM compiler GCC version 4.9.2
REM options -cpp -iprefix /lustre/shared/ucl/apps/gcc/4.9.2/bin/../lib/gcc/x86_64-unknown-linux-gnu/4.9.2/ -mtune=corei7 -march=x86-64 -g -Og
REM COMMAND_LINE
REM seed -851115029 796164950 -194220609 -1642281551 2021854535 775187089 -448137293 914707560 1153899225 -1990011094 -1570475504 -1814199223
REM
REM S 3|1.8|5|6|7|30:31:32(qc=5)
REM O 2|1.5|12|13|15|20:21(qc=5)
REM Li 1|1.3|8|9|10|10U:20(qc=5)
REM Fe 3|2.2|2.0|1.0|8|9|10|40:41:32(qc=5)
REM Fe d:4.0 
REM
CELL 1.54180    7.50519    7.50519   10.71829   69.50591   69.50591   60.00000
LATT -1
SFAC Li O  S  Fe 
Li     1 -0.0711280000000  0.1296920000000  0.5676850000000 1.0  -0.06
Li     1  0.1296920000000 -0.6262490000000  0.5676850000000 1.0  -0.06
Li     1 -0.6262490000000 -0.0711280000000  0.5676850000000 1.0  -0.06
Li     1  0.2937840000000  0.5228830000000  0.0553940000000 1.0  -0.05
Li     1  0.5228830000000  0.1279390000000  0.0553940000000 1.0  -0.05
Li     1  0.1279390000000  0.2937840000000  0.0553940000000 1.0  -0.05
Li     1 -0.3115260000000 -0.3115260000000 -0.0654230000000 1.0   0.04
Li     1 -0.2093930000000 -0.2093930000000 -0.3718220000000 1.0  -0.02
O      2  0.2791040000000  0.2791040000000  0.1626880000000 1.0   0.15
O      2  0.1075340000000  0.1075340000000 -0.3226010000000 1.0   0.13
S      3  0.1675180000000 -0.2383550000000 -0.4714160000000 1.0   0.10
S      3 -0.2383550000000 -0.4577480000000 -0.4714160000000 1.0   0.10
S      3 -0.4577480000000  0.1675180000000 -0.4714160000000 1.0   0.10
S      3 -0.0412380000000  0.4103570000000 -0.1440700000000 1.0  -0.02
S      3  0.4103570000000 -0.2250500000000 -0.1440700000000 1.0  -0.02
S      3 -0.2250500000000 -0.0412380000000 -0.1440700000000 1.0  -0.02
S      3  0.3894660000000  0.3894660000000 -0.1683990000000 1.0  -0.18
S      3 -0.0491980000000 -0.0491980000000  0.1475940000000 1.0  -0.01
Fe     4  0.0873530000000 -0.0870600000000  0.3255580000000 1.0   3.57
Fe     4 -0.0870600000000 -0.3258510000000  0.3255580000000 1.0   3.57
Fe     4 -0.3258510000000  0.0873530000000  0.3255580000000 1.0   3.57
Fe     4  0.2903900000000  0.1502870000000 -0.2217650000000 1.0   3.75
Fe     4  0.1502870000000 -0.2189120000000 -0.2217650000000 1.0   3.75
Fe     4 -0.2189120000000  0.2903900000000 -0.2217650000000 1.0   3.75
END
