TITL LFSO-Li5FeS2O2-201026-131444-2a0ea3 0.0219 189.831822 -3.33978920E+003 4.75738 4.82749 10 (P3) n - 1
REM
REM Run started: Mon, 26 Oct 2020 15:06:58 +0000 in /scratch/scratch/uccabz1/launch_tmp/launcher_2020-10-26-13-14-42-405992
REM CASTEP 19.11| from code version Version unavailable
REM Functional Perdew Burke Ernzerhof Relativity Koelling-Harmon Dispersion off
REM Cut-off 340.0000 eV Grid scale 1.7500 Gmax 16.5316 1/A FBSC none
REM MP grid 3 3 3 Offset 0.000 0.000 0.000 No. kpts 8 Spacing 0.07
REM Total runtime: 7103.21 s
REM Overall efficiency: 78.25 %
REM
REM
REM
REM compiler GCC version 4.9.2
REM options -cpp -iprefix /scratch/UCL/applications/gcc/4.9.2/bin/../lib/gcc/x86_64-unknown-linux-gnu/4.9.2/ -mtune=corei7 -march=x86-64 -g -O2
REM COMMAND_LINE
REM seed 36124014 -1839557957 -742364618 -1821301334 1533926145 -1258858604 658090273 280425630 200381125 1596079231 261533599 314909867
REM
REM S 3|1.8|5|6|7|30:31:32(qc=5)
REM O 2|1.5|12|13|15|20:21(qc=5)
REM Li 1|1.3|8|9|10|10U:20(qc=5)
REM Fe 3|2.2|2.0|1.0|8|9|10|40:41:32(qc=5)
REM Fe d:4.0 
REM
CELL 1.54180    6.27406    6.27406    5.56854   90.00000   90.00000  120.00000
LATT -1
SFAC Li O  S  Fe 
Li     1  0.0258810000000 -0.2535670000000 -0.3523980000000 1.0  -0.01
Li     1  0.2535670000000  0.2794470000000 -0.3523980000000 1.0  -0.01
Li     1 -0.2794470000000 -0.0258810000000 -0.3523980000000 1.0  -0.01
Li     1  0.3333330000000 -0.3333330000000  0.0514530000000 1.0  -0.06
Li     1 -0.3333330000000  0.3333330000000  0.2939580000000 1.0  -0.04
O      2 -0.3333330000000  0.3333330000000 -0.0064950000000 1.0   0.02
O      2 -0.0000000000000 -0.0000000000000 -0.2107300000000 1.0   0.19
S      3 -0.3333330000000  0.3333330000000 -0.3024050000000 1.0   0.02
S      3  0.3333330000000 -0.3333330000000 -0.5250830000000 1.0   0.11
Fe     4 -0.0000000000000 -0.0000000000000  0.1241950000000 1.0   4.55
END
