TITL LFSO-Li5FeS2O2-201025-200209-1bda9e 0.0374 348.845277 -6.68905075E+003 -6.00000 6.63382 20 (P2/c) n - 1
REM
REM Run started: Mon, 26 Oct 2020 03:22:21 +0000 in /lustre/scratch/uccabz1/launch_tmp/launcher_2020-10-25-20-02-07-792494
REM CASTEP 20.1 from code version af48c487+ pr-geom-scf-spinfix Tue Jun 2 15:39:59 2020 +0100
REM Functional Perdew Burke Ernzerhof Relativity Koelling-Harmon Dispersion off
REM Cut-off 340.0000 eV Grid scale 1.7500 Gmax 16.5316 1/A FBSC none
REM MP grid 3 3 2 Offset 0.000 0.000 0.000 No. kpts 5 Spacing 0.07
REM Total runtime: 27241.3 s
REM Overall efficiency: 86.75 %
REM
REM
REM
REM compiler GCC version 4.9.2
REM options -cpp -iprefix /lustre/shared/ucl/apps/gcc/4.9.2/bin/../lib/gcc/x86_64-unknown-linux-gnu/4.9.2/ -mtune=corei7 -march=x86-64 -g -Og
REM COMMAND_LINE
REM seed 1766952255 -1940363962 -1658967038 451317869 -89903354 -620181651 1001194133 -366829016 -1756383516 360602088 -297885092 -309937925
REM
REM S 3|1.8|5|6|7|30:31:32(qc=5)
REM O 2|1.5|12|13|15|20:21(qc=5)
REM Li 1|1.3|8|9|10|10U:20(qc=5)
REM Fe 3|2.2|2.0|1.0|8|9|10|40:41:32(qc=5)
REM Fe d:4.0 
REM
CELL 1.54180    7.82075    8.70092    8.00118   90.00000   90.00000  140.15480
LATT -1
SFAC Li O  S  Fe 
Li     1  0.5829440000000 -0.3609340000000  0.1759000000000 1.0   0.01
Li     1 -0.0829440000000  0.3609340000000  0.1759000000000 1.0   0.01
Li     1 -0.5829440000000  0.3609340000000 -0.1759000000000 1.0   0.01
Li     1  0.0829440000000 -0.3609340000000 -0.1759000000000 1.0   0.01
Li     1  0.2703050000000  0.3628740000000  0.4662440000000 1.0   0.03
Li     1  0.2296950000000 -0.3628740000000  0.4662440000000 1.0   0.03
Li     1 -0.2703050000000 -0.3628740000000 -0.4662440000000 1.0   0.03
Li     1 -0.2296950000000  0.3628740000000 -0.4662440000000 1.0   0.03
Li     1 -0.2500000000000  0.0000000000000 -0.2726330000000 1.0   0.12
Li     1  0.2500000000000  0.0000000000000  0.2726330000000 1.0   0.12
O      2  0.4423940000000  0.3115290000000 -0.4026450000000 1.0  -0.05
O      2  0.0576060000000 -0.3115290000000 -0.4026450000000 1.0  -0.05
O      2 -0.4423940000000 -0.3115290000000  0.4026450000000 1.0  -0.05
O      2 -0.0576060000000  0.3115290000000  0.4026450000000 1.0  -0.05
S      3  0.0404960000000  0.3336070000000 -0.0932040000000 1.0  -0.00
S      3  0.4595040000000 -0.3336070000000 -0.0932040000000 1.0  -0.00
S      3 -0.0404960000000 -0.3336070000000  0.0932040000000 1.0  -0.00
S      3 -0.4595040000000  0.3336070000000  0.0932040000000 1.0  -0.00
Fe     4 -0.2500000000000  0.0000000000000  0.3993650000000 1.0  -3.10
Fe     4  0.2500000000000  0.0000000000000 -0.3993650000000 1.0  -3.10
END
