TITL LFSO-Li2Fe2S2O-201021-232109-7e32ee -0.0154 135.100809 -3.16696296E+003 6.65402 7.04748 7 (Cm) n - 1
REM
REM Run started: Thu, 22 Oct 2020 00:01:31 +0100 in /scratch/scratch/uccabz1/launch_tmp/launcher_2020-10-21-22-21-07-366945
REM CASTEP 19.11| from code version Version unavailable
REM Functional Perdew Burke Ernzerhof Relativity Koelling-Harmon Dispersion off
REM Cut-off 340.0000 eV Grid scale 1.7500 Gmax 16.5316 1/A FBSC none
REM MP grid 4 4 3 Offset 0.000 0.000 0.000 No. kpts 16 Spacing 0.07
REM Total runtime: 2393.16 s
REM Overall efficiency: 88.3333 %
REM
REM
REM
REM compiler GCC version 4.9.2
REM options -cpp -iprefix /scratch/UCL/applications/gcc/4.9.2/bin/../lib/gcc/x86_64-unknown-linux-gnu/4.9.2/ -mtune=corei7 -march=x86-64 -g -O2
REM COMMAND_LINE
REM seed -524011360 -1123723734 -2076711003 1650559860 1188361115 -1403887712 -1357040251 145702949 1709961867 -761361328 -1479623168 -308092525
REM
REM S 3|1.8|5|6|7|30:31:32(qc=5)
REM O 2|1.5|12|13|15|20:21(qc=5)
REM Li 1|1.3|8|9|10|10U:20(qc=5)
REM Fe 3|2.2|2.0|1.0|8|9|10|40:41:32(qc=5)
REM Fe d:4.0 
REM
CELL 1.54180    4.88317    4.88317    6.04740   92.38459   92.38459   69.73329
LATT -1
SFAC Li O  S  Fe 
Li     1 -0.0902060000000 -0.5350750000000 -0.2624730000000 1.0  -0.04
Li     1 -0.5350750000000 -0.0902060000000 -0.2624730000000 1.0  -0.04
O      2 -0.4470600000000 -0.4470600000000 -0.4060060000000 1.0   0.10
S      3  0.4867540000000 -0.0165050000000  0.1332260000000 1.0  -0.03
S      3 -0.0165050000000  0.4867540000000  0.1332260000000 1.0  -0.03
Fe     4  0.2516070000000 -0.2933810000000  0.3583870000000 1.0   3.36
Fe     4 -0.2933810000000  0.2516070000000  0.3583870000000 1.0   3.36
END
