TITL LFSO-Li2Fe3S3O-201025-204142-d311ea 0.2799 168.600453 -4.33521847E+003 11.9439 12.0791 9 (P-1) n - 1
REM
REM Run started: Mon, 26 Oct 2020 02:24:10 +0000 in /lustre/scratch/uccabz1/launch_tmp/launcher_2020-10-25-20-41-40-107061
REM CASTEP 20.1 from code version af48c487+ pr-geom-scf-spinfix Tue Jun 2 15:39:59 2020 +0100
REM Functional Perdew Burke Ernzerhof Relativity Koelling-Harmon Dispersion off
REM Cut-off 340.0000 eV Grid scale 1.7500 Gmax 16.5316 1/A FBSC none
REM MP grid 5 5 3 Offset 0.000 0.000 0.000 No. kpts 38 Spacing 0.07
REM Total runtime: 23360.5 s
REM Overall efficiency: 86.1667 %
REM
REM
REM
REM compiler GCC version 4.9.2
REM options -cpp -iprefix /lustre/shared/ucl/apps/gcc/4.9.2/bin/../lib/gcc/x86_64-unknown-linux-gnu/4.9.2/ -mtune=corei7 -march=x86-64 -g -Og
REM COMMAND_LINE
REM seed 426570365 1222552868 -528895422 639977183 -1359358165 -1579503482 1118242532 -1934266779 -1168052043 343061086 -703910530 -1570084567
REM
REM S 3|1.8|5|6|7|30:31:32(qc=5)
REM O 2|1.5|12|13|15|20:21(qc=5)
REM Li 1|1.3|8|9|10|10U:20(qc=5)
REM Fe 3|2.2|2.0|1.0|8|9|10|40:41:32(qc=5)
REM Fe d:4.0 
REM
CELL 1.54180    3.70187    6.92528   14.26351   30.51345   81.66296   71.07165
LATT -1
SFAC Li O  S  Fe 
Li     1  0.4308870000000 -0.5420810000000 -0.3559900000000 1.0  -0.07
Li     1 -0.4308870000000  0.5420810000000  0.3559900000000 1.0  -0.07
O      2  0.0000000000000  0.0000000000000 -0.5000000000000 1.0   0.21
S      3 -0.6443640000000  0.2286520000000  0.0117660000000 1.0   0.23
S      3  0.6443640000000 -0.2286520000000 -0.0117660000000 1.0   0.23
S      3  1.0000000000000 -0.5000000000000 -0.5000000000000 1.0   0.13
Fe     4 -0.1563230000000 -0.8574410000000  0.3177970000000 1.0   3.77
Fe     4  0.1563230000000  0.8574410000000 -0.3177970000000 1.0   3.77
Fe     4  0.0000000000000  0.0000000000000  0.0000000000000 1.0   3.74
END
