TITL LFSO-Li2Fe3S3O-201025-233059-181d6f 0.0264 378.635182 -8.66511248E+003 22.6212 22.8620 18 (Amm2) n - 1
REM
REM Run started: Mon, 26 Oct 2020 02:46:26 +0000 in /lustre/scratch/uccabz1/launch_tmp/launcher_2020-10-25-23-30-58-082189
REM CASTEP 20.1 from code version af48c487+ pr-geom-scf-spinfix Tue Jun 2 15:39:59 2020 +0100
REM Functional Perdew Burke Ernzerhof Relativity Koelling-Harmon Dispersion off
REM Cut-off 340.0000 eV Grid scale 1.7500 Gmax 16.5316 1/A FBSC none
REM MP grid 4 2 2 Offset 0.000 0.000 0.000 No. kpts 4 Spacing 0.07
REM Total runtime: 11844.8 s
REM Overall efficiency: 75.2857 %
REM
REM
REM
REM compiler GCC version 4.9.2
REM options -cpp -iprefix /lustre/shared/ucl/apps/gcc/4.9.2/bin/../lib/gcc/x86_64-unknown-linux-gnu/4.9.2/ -mtune=corei7 -march=x86-64 -g -Og
REM COMMAND_LINE
REM seed -1685948687 -30295341 -1939056127 -1411695414 1208271341 265469818 18436829 -72894903 1377812193 -12312237 156206957 -1074658512
REM
REM S 3|1.8|5|6|7|30:31:32(qc=5)
REM O 2|1.5|12|13|15|20:21(qc=5)
REM Li 1|1.3|8|9|10|10U:20(qc=5)
REM Fe 3|2.2|2.0|1.0|8|9|10|40:41:32(qc=5)
REM Fe d:4.0 
REM
CELL 1.54180    3.93198    7.88797   12.36529   90.00000   99.14841   90.00000
LATT -1
SFAC Li O  S  Fe 
Li     1  0.4195150000000 -0.3473220000000 -0.4119140000000 1.0  -0.00
Li     1 -0.1685710000000  0.3473220000000  0.4119140000000 1.0  -0.00
Li     1 -0.1685710000000 -0.3473220000000  0.4119140000000 1.0  -0.00
Li     1  0.4195150000000  0.3473220000000 -0.4119140000000 1.0  -0.00
O      2 -0.3571930000000  0.5000000000000  0.5062530000000 1.0   0.18
O      2  0.1365530000000 -0.5000000000000 -0.5062540000000 1.0   0.18
S      3  0.3132410000000 -0.2415790000000  0.2665990000000 1.0   0.13
S      3  0.0466420000000  0.2415790000000 -0.2665990000000 1.0   0.13
S      3  0.0466420000000 -0.2415790000000 -0.2665990000000 1.0   0.13
S      3  0.3132410000000  0.2415790000000  0.2665990000000 1.0   0.13
S      3  0.4243780000000  0.2266580000000 -0.0000000000000 1.0   0.16
S      3  0.4243780000000 -0.2266580000000 -0.0000000000000 1.0   0.16
Fe     4 -0.3929650000000  0.3061690000000 -0.1638670000000 1.0   3.54
Fe     4 -0.2290980000000 -0.3061690000000  0.1638670000000 1.0   3.54
Fe     4 -0.2290980000000  0.3061690000000  0.1638670000000 1.0   3.54
Fe     4 -0.3929650000000 -0.3061690000000 -0.1638670000000 1.0   3.54
Fe     4  0.2111010000000  0.0000000000000 -0.1431270000000 1.0   3.64
Fe     4  0.3542290000000  0.0000000000000  0.1431270000000 1.0   3.64
END
