TITL LFSO-Li6FeSO3-201028-032558-611eeb -0.0269 211.290035 -3.67853177E+003 4.00000 4.11545 11 (P2) n - 1
REM
REM Run started: Wed, 28 Oct 2020 04:21:54 +0000 in /lustre/scratch/uccabz1/launch_tmp/launcher_2020-10-28-03-25-56-594628
REM CASTEP 20.1 from code version af48c487+ pr-geom-scf-spinfix Tue Jun 2 15:39:59 2020 +0100
REM Functional Perdew Burke Ernzerhof Relativity Koelling-Harmon Dispersion off
REM Cut-off 340.0000 eV Grid scale 1.7500 Gmax 16.5316 1/A FBSC none
REM MP grid 5 3 2 Offset 0.000 0.000 0.000 No. kpts 10 Spacing 0.07
REM Total runtime: 3596.26 s
REM Overall efficiency: 79 %
REM
REM
REM
REM compiler GCC version 4.9.2
REM options -cpp -iprefix /lustre/shared/ucl/apps/gcc/4.9.2/bin/../lib/gcc/x86_64-unknown-linux-gnu/4.9.2/ -mtune=corei7 -march=x86-64 -g -Og
REM COMMAND_LINE
REM seed 2029340063 -1598206538 1292680624 -1299097892 -727273317 6499268 -1239240608 833239910 -1665294446 -367200206 -1293114074 -2052419311
REM
REM S 3|1.8|5|6|7|30:31:32(qc=5)
REM O 2|1.5|12|13|15|20:21(qc=5)
REM Li 1|1.3|8|9|10|10U:20(qc=5)
REM Fe 3|2.2|2.0|1.0|8|9|10|40:41:32(qc=5)
REM Fe d:4.0 
REM
CELL 1.54180    3.74497    5.90552   10.62045   90.00000   64.10021   90.00000
LATT -1
SFAC Li O  S  Fe 
Li     1 -0.4555200000000 -0.3244220000000 -0.3807770000000 1.0   0.01
Li     1  0.4555200000000 -0.3244220000000  0.3807770000000 1.0   0.01
Li     1  0.1812920000000  0.0680830000000  0.2694440000000 1.0  -0.05
Li     1 -0.1812920000000  0.0680830000000 -0.2694440000000 1.0  -0.05
Li     1  0.1574910000000 -0.0930120000000 -0.1347280000000 1.0   0.01
Li     1 -0.1574910000000 -0.0930120000000  0.1347280000000 1.0   0.01
O      2  0.3947410000000 -0.0160310000000 -0.3271760000000 1.0   0.09
O      2 -0.3947410000000 -0.0160310000000  0.3271760000000 1.0   0.09
O      2  0.5000000000000 -0.5194090000000 -0.5000000000000 1.0   0.12
S      3 -0.5000000000000 -0.0358900000000  0.0000000000000 1.0   0.01
Fe     4 -0.5000000000000  0.1645160000000  0.5000000000000 1.0   3.76
END
