TITL LFSO-Li4Fe3S4O-201029-001050-2b0472 0.0422 698.779583 -1.00688982E+004 -2.13213 21.7109 24 (R3) n - 1
REM
REM Run started: Mon, 02 Nov 2020 04:19:17 +0000 in /lustre/scratch/uccabz1/launch_tmp/launcher_2020-11-01-23-38-36-614512
REM CASTEP 20.1 from code version af48c487+ pr-geom-scf-spinfix Tue Jun 2 15:39:59 2020 +0100
REM Functional Perdew Burke Ernzerhof Relativity Koelling-Harmon Dispersion off
REM Cut-off 340.0000 eV Grid scale 1.7500 Gmax 16.5316 1/A FBSC none
REM MP grid 3 3 3 Offset 0.000 0.000 0.000 No. kpts 6 Spacing 0.07
REM Total runtime: 245169 s
REM Overall efficiency: 98.3333 %
REM
REM
REM
REM compiler GCC version 4.9.2
REM options -cpp -iprefix /lustre/shared/ucl/apps/gcc/4.9.2/bin/../lib/gcc/x86_64-unknown-linux-gnu/4.9.2/ -mtune=corei7 -march=x86-64 -g -Og
REM COMMAND_LINE
REM seed 1167395910 111913112 1062485912 -1698198327 -1945215642 -960680416 1462862637 820240809 -1142095903 -1176820712 1919479024 217042533
REM
REM S 3|1.8|5|6|7|30:31:32(qc=5)
REM O 2|1.5|12|13|15|20:21(qc=5)
REM Li 1|1.3|8|9|10|10U:20(qc=5)
REM Fe 3|2.2|2.0|1.0|8|9|10|40:41:32(qc=5)
REM Fe d:4.0 
REM
CELL 1.54180   16.21404   16.21404   16.21404   25.56388   25.56388   25.56388
LATT -1
SFAC Li O  S  Fe 
Li     1 -0.4970640000000 -0.0411660000000 -0.0883150000000 1.0   0.04
Li     1 -0.0883150000000 -0.4970640000000 -0.0411660000000 1.0   0.04
Li     1 -0.0411660000000 -0.0883150000000 -0.4970640000000 1.0   0.04
Li     1  0.2185730000000  0.1123330000000 -0.1756950000000 1.0  -0.11
Li     1 -0.1756950000000  0.2185730000000  0.1123330000000 1.0  -0.11
Li     1  0.1123330000000 -0.1756950000000  0.2185730000000 1.0  -0.11
Li     1  0.1948350000000  0.1948350000000  0.1948350000000 1.0   0.03
Li     1 -0.3495720000000 -0.3495720000000 -0.3495720000000 1.0   0.01
O      2 -0.2385670000000 -0.2385670000000 -0.2385670000000 1.0   0.02
O      2  0.0752930000000  0.0752930000000  0.0752930000000 1.0   0.00
S      3 -0.4767590000000  0.0198330000000 -0.0106900000000 1.0  -0.17
S      3 -0.0106900000000 -0.4767590000000  0.0198330000000 1.0  -0.17
S      3  0.0198330000000 -0.0106900000000 -0.4767590000000 1.0  -0.17
S      3 -0.3418750000000  0.0078590000000  0.3809880000000 1.0  -0.01
S      3  0.3809880000000 -0.3418750000000  0.0078590000000 1.0  -0.01
S      3  0.0078590000000  0.3809880000000 -0.3418750000000 1.0  -0.01
S      3  0.5587690000000  0.5587690000000  0.5587690000000 1.0  -0.03
S      3  0.3478570000000  0.3478570000000  0.3478570000000 1.0   0.03
Fe     4  0.5502350000000 -0.3202880000000 -0.0462020000000 1.0   3.20
Fe     4 -0.0462020000000  0.5502350000000 -0.3202880000000 1.0   3.20
Fe     4 -0.3202880000000 -0.0462020000000  0.5502350000000 1.0   3.20
Fe     4 -0.3240340000000 -0.2937700000000  0.2160090000000 1.0  -3.68
Fe     4  0.2160090000000 -0.3240340000000 -0.2937700000000 1.0  -3.68
Fe     4 -0.2937700000000  0.2160090000000 -0.3240340000000 1.0  -3.68
END
