TITL LFSO-Li2FeSO-201025-021855-872b0e 0.0195 72.177646 -2.00329766E+003 4.00735 4.05458 5 (P-6m2) n - 1
REM
REM Run started: Sun, 25 Oct 2020 02:26:43 +0000 in /lustre/scratch/uccabz1/launch_tmp/launcher_2020-10-25-02-18-54-236746
REM CASTEP 20.1 from code version af48c487+ pr-geom-scf-spinfix Tue Jun 2 15:39:59 2020 +0100
REM Functional Perdew Burke Ernzerhof Relativity Koelling-Harmon Dispersion off
REM Cut-off 340.0000 eV Grid scale 1.7500 Gmax 16.5316 1/A FBSC none
REM MP grid 5 5 3 Offset 0.000 0.000 0.000 No. kpts 12 Spacing 0.07
REM Total runtime: 542.39 s
REM Overall efficiency: 83 %
REM
REM
REM
REM compiler GCC version 4.9.2
REM options -cpp -iprefix /lustre/shared/ucl/apps/gcc/4.9.2/bin/../lib/gcc/x86_64-unknown-linux-gnu/4.9.2/ -mtune=corei7 -march=x86-64 -g -Og
REM COMMAND_LINE
REM seed -286710807 -968404543 166329193 662028647 -182896519 934413856 167139373 -436897946 667087423 1732594434 1217679161 -1448958181
REM
REM S 3|1.8|5|6|7|30:31:32(qc=5)
REM O 2|1.5|12|13|15|20:21(qc=5)
REM Li 1|1.3|8|9|10|10U:20(qc=5)
REM Fe 3|2.2|2.0|1.0|8|9|10|40:41:32(qc=5)
REM Fe d:4.0 
REM
CELL 1.54180    3.70788    3.70788    6.06206   90.00000   90.00000  120.00000
LATT -1
SFAC Li O  S  Fe 
Li     1 -0.3333330000000  0.3333330000000 -0.0532150000000 1.0  -0.04
Li     1 -0.3333330000000  0.3333330000000  0.5820160000000 1.0  -0.04
O      2 -0.3333330000000  0.3333330000000  0.2644470000000 1.0   0.10
S      3  0.0000000000000 -0.0000000000000 -0.2356320000000 1.0   0.00
Fe     4  0.0000000000000 -0.0000000000000  0.2638730000000 1.0   3.99
END
