TITL LFSO-Li4Fe3S4O-201029-161954-eaf178 -0.0113 622.911824 -1.00708952E+004 19.9999 22.4758 24 (P2/m) n - 1
REM
REM Run started: Fri, 30 Oct 2020 03:22:20 +0000 in /scratch/scratch/uccabz1/launch_tmp/launcher_2020-10-29-16-19-52-446648
REM CASTEP 19.11| from code version Version unavailable
REM Functional Perdew Burke Ernzerhof Relativity Koelling-Harmon Dispersion off
REM Cut-off 340.0000 eV Grid scale 1.7500 Gmax 16.5316 1/A FBSC none
REM MP grid 2 3 2 Offset 0.000 0.000 0.000 No. kpts 3 Spacing 0.07
REM Total runtime: 41084.6 s
REM Overall efficiency: 88.375 %
REM
REM
REM
REM compiler GCC version 4.9.2
REM options -cpp -iprefix /scratch/UCL/applications/gcc/4.9.2/bin/../lib/gcc/x86_64-unknown-linux-gnu/4.9.2/ -mtune=corei7 -march=x86-64 -g -O2
REM COMMAND_LINE
REM seed -1095789655 -1902269475 1249122655 -1686633993 1556908988 2067658817 -592815382 79873846 -420190390 -1663792140 739391408 2119104743
REM
REM S 3|1.8|5|6|7|30:31:32(qc=5)
REM O 2|1.5|12|13|15|20:21(qc=5)
REM Li 1|1.3|8|9|10|10U:20(qc=5)
REM Fe 3|2.2|2.0|1.0|8|9|10|40:41:32(qc=5)
REM Fe d:4.0 
REM
CELL 1.54180    8.37704    7.64414   11.43370  121.70267   90.00000   90.00000
LATT -1
SFAC Li O  S  Fe 
Li     1 -0.1482730000000  0.0626890000000  0.1613200000000 1.0  -0.00
Li     1 -0.1482730000000 -0.0626890000000 -0.1613200000000 1.0  -0.00
Li     1  0.1482730000000 -0.0626890000000 -0.1613200000000 1.0  -0.00
Li     1  0.1482730000000  0.0626890000000  0.1613200000000 1.0  -0.00
Li     1 -0.1479920000000 -0.1507040000000 -0.4171930000000 1.0   0.00
Li     1 -0.1479920000000  0.1507040000000  0.4171930000000 1.0   0.00
Li     1  0.1479920000000  0.1507040000000  0.4171930000000 1.0   0.00
Li     1  0.1479920000000 -0.1507040000000 -0.4171930000000 1.0   0.00
O      2  0.0000000000000  0.1619720000000  0.3000660000000 1.0   0.04
O      2  0.0000000000000 -0.1619720000000 -0.3000660000000 1.0   0.04
S      3 -0.2674160000000 -0.1672660000000  0.3720600000000 1.0  -0.18
S      3 -0.2674160000000  0.1672660000000 -0.3720600000000 1.0  -0.18
S      3  0.2674160000000  0.1672660000000 -0.3720600000000 1.0  -0.18
S      3  0.2674160000000 -0.1672660000000  0.3720600000000 1.0  -0.18
S      3 -0.2532760000000  0.2483170000000  0.0475170000000 1.0   0.03
S      3 -0.2532760000000 -0.2483170000000 -0.0475170000000 1.0   0.03
S      3  0.2532760000000 -0.2483170000000 -0.0475170000000 1.0   0.03
S      3  0.2532760000000  0.2483170000000  0.0475170000000 1.0   0.03
Fe     4 -0.1708490000000 -0.5263860000000 -0.2449570000000 1.0   3.34
Fe     4 -0.1708490000000  0.5263860000000  0.2449570000000 1.0   3.34
Fe     4  0.1708490000000  0.5263860000000  0.2449570000000 1.0   3.34
Fe     4  0.1708490000000 -0.5263860000000 -0.2449570000000 1.0   3.34
Fe     4 -0.2197940000000 -0.5000000000000  0.0000000000000 1.0   3.59
Fe     4  0.2197940000000  0.5000000000000  0.0000000000000 1.0   3.59
END
