TITL LFSO-Li2Fe3S3O-201025-171521-5fe53a 0.0714 153.870654 -4.33497358E+003 11.9821 12.0384 9 (Imm2) n - 1
REM
REM Run started: Sun, 25 Oct 2020 18:32:15 +0000 in /lustre/scratch/uccabz1/launch_tmp/launcher_2020-10-25-17-15-19-617316
REM CASTEP 20.1 from code version af48c487+ pr-geom-scf-spinfix Tue Jun 2 15:39:59 2020 +0100
REM Functional Perdew Burke Ernzerhof Relativity Koelling-Harmon Dispersion off
REM Cut-off 340.0000 eV Grid scale 1.7500 Gmax 16.5316 1/A FBSC none
REM MP grid 3 3 3 Offset 0.000 0.000 0.000 No. kpts 8 Spacing 0.07
REM Total runtime: 4583.76 s
REM Overall efficiency: 81.6 %
REM
REM
REM
REM compiler GCC version 4.9.2
REM options -cpp -iprefix /lustre/shared/ucl/apps/gcc/4.9.2/bin/../lib/gcc/x86_64-unknown-linux-gnu/4.9.2/ -mtune=corei7 -march=x86-64 -g -Og
REM COMMAND_LINE
REM seed -815921599 519012108 1407724220 -85103594 891550501 -1805574416 1155872852 -426024842 -1222834957 924070197 -75523601 1413446471
REM
REM S 3|1.8|5|6|7|30:31:32(qc=5)
REM O 2|1.5|12|13|15|20:21(qc=5)
REM Li 1|1.3|8|9|10|10U:20(qc=5)
REM Fe 3|2.2|2.0|1.0|8|9|10|40:41:32(qc=5)
REM Fe d:4.0 
REM
CELL 1.54180    6.10922    6.02592    6.02592   58.43855   59.54172   59.54172
LATT -1
SFAC Li O  S  Fe 
Li     1 -0.2334540000000 -0.1575240000000 -0.3755670000000 1.0  -0.07
Li     1  0.2334540000000  0.3755670000000  0.1575240000000 1.0  -0.07
O      2 -0.0000000000000 -0.4092550000000  0.4092550000000 1.0   0.15
S      3  0.2644820000000 -0.1997030000000 -0.3292610000000 1.0   0.18
S      3 -0.2644820000000  0.3292610000000  0.1997030000000 1.0   0.18
S      3 -0.5000000000000  0.0767390000000 -0.0767390000000 1.0   0.15
Fe     4 -0.2735920000000  0.4032480000000 -0.4032480000000 1.0   3.82
Fe     4  0.2735920000000  0.4032480000000 -0.4032480000000 1.0   3.82
Fe     4 -0.0000000000000 -0.0601680000000  0.0601680000000 1.0   3.83
END
