TITL LFSO-Li6FeSO3-201028-053411-3d8e1b 0.0116 430.230375 -7.35719632E+003 8.00000 8.32410 22 (P2) n - 1
REM
REM Run started: Wed, 28 Oct 2020 09:03:32 +0000 in /scratch/scratch/uccabz1/launch_tmp/launcher_2020-10-28-05-34-10-182197
REM CASTEP 19.11| from code version Version unavailable
REM Functional Perdew Burke Ernzerhof Relativity Koelling-Harmon Dispersion off
REM Cut-off 340.0000 eV Grid scale 1.7500 Gmax 16.5316 1/A FBSC none
REM MP grid 2 3 4 Offset 0.000 0.000 0.000 No. kpts 6 Spacing 0.07
REM Total runtime: 15124.1 s
REM Overall efficiency: 71 %
REM
REM
REM
REM compiler GCC version 4.9.2
REM options -cpp -iprefix /scratch/UCL/applications/gcc/4.9.2/bin/../lib/gcc/x86_64-unknown-linux-gnu/4.9.2/ -mtune=corei7 -march=x86-64 -g -O2
REM COMMAND_LINE
REM seed 797988850 926049424 660729874 -359446301 -1429159671 1200267162 1208001684 1039131734 -520401679 965182436 -547581681 1800002252
REM
REM S 3|1.8|5|6|7|30:31:32(qc=5)
REM O 2|1.5|12|13|15|20:21(qc=5)
REM Li 1|1.3|8|9|10|10U:20(qc=5)
REM Fe 3|2.2|2.0|1.0|8|9|10|40:41:32(qc=5)
REM Fe d:4.0 
REM
CELL 1.54180    8.74060   10.63898    9.79491  151.81335   90.00000   90.00000
LATT -1
SFAC Li O  S  Fe 
Li     1  0.4229430000000  0.1959300000000 -0.3624680000000 1.0  -0.05
Li     1  0.4229430000000 -0.1959300000000  0.3624680000000 1.0  -0.05
Li     1  0.3247260000000 -0.2988120000000  0.6478760000000 1.0  -0.02
Li     1  0.3247260000000  0.2988120000000 -0.6478760000000 1.0  -0.02
Li     1  0.1380120000000 -0.2487220000000 -0.0336690000000 1.0  -0.01
Li     1  0.1380120000000  0.2487220000000  0.0336690000000 1.0  -0.01
Li     1 -0.3487520000000  0.0650770000000  0.3520190000000 1.0  -0.04
Li     1 -0.3487520000000 -0.0650770000000 -0.3520190000000 1.0  -0.04
Li     1 -0.3238680000000 -0.2924770000000  0.1588190000000 1.0   0.02
Li     1 -0.3238680000000  0.2924770000000 -0.1588190000000 1.0   0.02
Li     1 -0.1218510000000 -0.6254980000000 -0.2990610000000 1.0  -0.00
Li     1 -0.1218510000000  0.6254980000000  0.2990610000000 1.0  -0.00
O      2 -0.3663970000000  0.3883590000000 -0.2546910000000 1.0   0.09
O      2 -0.3663970000000 -0.3883590000000  0.2546910000000 1.0   0.09
O      2  0.3114170000000  0.3782550000000  0.2478120000000 1.0   0.07
O      2  0.3114170000000 -0.3782550000000 -0.2478120000000 1.0   0.07
O      2  0.4806140000000  0.1152240000000 -0.2579950000000 1.0   0.19
O      2  0.4806140000000 -0.1152240000000  0.2579950000000 1.0   0.19
S      3 -0.0883920000000 -0.1321050000000  0.1741940000000 1.0   0.00
S      3 -0.0883920000000  0.1321050000000 -0.1741940000000 1.0   0.00
Fe     4  0.4702480000000 -0.4064380000000 -0.1415800000000 1.0   3.75
Fe     4  0.4702480000000  0.4064380000000  0.1415800000000 1.0   3.75
END
