TITL LFSO-LiFe3S4O-201028-133403-dfef5c -0.0298 421.577275 -8.87664821E+003 22.0000 23.0143 18 (Cc) n - 1
REM
REM Run started: Wed, 28 Oct 2020 21:24:39 +0000 in /lustre/scratch/uccabz1/launch_tmp/launcher_2020-10-28-13-34-02-297512
REM CASTEP 20.1 from code version af48c487+ pr-geom-scf-spinfix Tue Jun 2 15:39:59 2020 +0100
REM Functional Perdew Burke Ernzerhof Relativity Koelling-Harmon Dispersion off
REM Cut-off 340.0000 eV Grid scale 1.7500 Gmax 16.5316 1/A FBSC none
REM MP grid 3 3 2 Offset 0.000 0.000 0.000 No. kpts 6 Spacing 0.07
REM Total runtime: 29428.3 s
REM Overall efficiency: 75.4167 %
REM
REM
REM
REM compiler GCC version 4.9.2
REM options -cpp -iprefix /lustre/shared/ucl/apps/gcc/4.9.2/bin/../lib/gcc/x86_64-unknown-linux-gnu/4.9.2/ -mtune=corei7 -march=x86-64 -g -Og
REM COMMAND_LINE
REM seed 1060394083 1793066316 -181987663 657901359 1324012771 -1452066175 1407859355 715233470 -1594434638 822562123 -2089647019 708907749
REM
REM S 3|1.8|5|6|7|30:31:32(qc=5)
REM O 2|1.5|12|13|15|20:21(qc=5)
REM Li 1|1.3|8|9|10|10U:20(qc=5)
REM Fe 3|2.2|2.0|1.0|8|9|10|40:41:32(qc=5)
REM Fe d:4.0 
REM
CELL 1.54180    9.12001    9.12001    7.27384   85.17618   85.17618   44.40420
LATT -1
SFAC Li O  S  Fe 
Li     1 -0.3728010000000 -0.3884510000000 -0.2880520000000 1.0  -0.03
Li     1 -0.3884510000000 -0.3728010000000  0.2119480000000 1.0  -0.03
O      2 -0.2336640000000  0.4765570000000 -0.0353220000000 1.0   0.14
O      2  0.4765570000000 -0.2336640000000  0.4646780000000 1.0   0.14
S      3  0.1299950000000  0.3486360000000  0.2748100000000 1.0   0.11
S      3  0.3486360000000  0.1299950000000 -0.2251900000000 1.0   0.11
S      3 -0.3376840000000  0.3183070000000 -0.3393480000000 1.0   0.02
S      3  0.3183070000000 -0.3376840000000  0.1606520000000 1.0   0.02
S      3 -0.3037260000000  0.0685900000000  0.0464100000000 1.0  -0.06
S      3  0.0685900000000 -0.3037260000000 -0.4535900000000 1.0  -0.06
S      3  0.1384390000000 -0.2405780000000 -0.2271340000000 1.0  -0.02
S      3 -0.2405780000000  0.1384390000000  0.2728660000000 1.0  -0.02
Fe     4 -0.2970020000000  0.3157470000000 -0.0268580000000 1.0   3.31
Fe     4  0.3157470000000 -0.2970020000000  0.4731420000000 1.0   3.31
Fe     4  0.0589790000000  0.3114310000000 -0.0170130000000 1.0   3.83
Fe     4  0.3114310000000  0.0589790000000 -0.5170130000000 1.0   3.83
Fe     4  0.3653330000000  0.3817160000000 -0.2630800000000 1.0   3.70
Fe     4  0.3817160000000  0.3653330000000  0.2369200000000 1.0   3.70
END
