TITL LFSO-Li5FeSO3-201027-002617-db782d 0.0048 122.413924 -3.47799602E+003 3.71358 3.95893 10 (C2/m) n - 1
REM
REM Run started: Tue, 27 Oct 2020 01:08:59 +0000 in /lustre/scratch/uccabz1/launch_tmp/launcher_2020-10-27-00-27-37-005209
REM CASTEP 20.1 from code version af48c487+ pr-geom-scf-spinfix Tue Jun 2 15:39:59 2020 +0100
REM Functional Perdew Burke Ernzerhof Relativity Koelling-Harmon Dispersion off
REM Cut-off 340.0000 eV Grid scale 1.7500 Gmax 16.5316 1/A FBSC none
REM MP grid 4 6 6 Offset 0.000 0.000 0.000 No. kpts 42 Spacing 0.07
REM Total runtime: 3183.42 s
REM Overall efficiency: 90.8333 %
REM
REM
REM
REM compiler GCC version 4.9.2
REM options -cpp -iprefix /lustre/shared/ucl/apps/gcc/4.9.2/bin/../lib/gcc/x86_64-unknown-linux-gnu/4.9.2/ -mtune=corei7 -march=x86-64 -g -Og
REM COMMAND_LINE
REM seed -1699813645 -295456294 27250217 -1591599515 -550869908 1654274356 -2054670295 -1259173933 1617881166 -968445643 -1698420614 -322368592
REM
REM S 3|1.8|5|6|7|30:31:32(qc=5)
REM O 2|1.5|12|13|15|20:21(qc=5)
REM Li 1|1.3|8|9|10|10U:20(qc=5)
REM Fe 3|2.2|2.0|1.0|8|9|10|40:41:32(qc=5)
REM Fe d:4.0 
REM
CELL 1.54180    9.02679    6.12201    6.12201  118.31579  117.86364  117.86364
LATT -1
SFAC Li O  S  Fe 
Li     1  0.2271480000000 -0.3179880000000  0.3394560000000 1.0  -0.01
Li     1 -0.2271480000000 -0.3394560000000  0.3179880000000 1.0  -0.01
Li     1 -0.2271480000000  0.3179880000000 -0.3394560000000 1.0  -0.01
Li     1  0.2271480000000  0.3394560000000 -0.3179880000000 1.0  -0.01
Li     1  0.5000000000000  0.5000000000000  0.5000000000000 1.0  -0.06
O      2  0.0000000000000  0.3137720000000 -0.3137720000000 1.0   0.01
O      2  0.0000000000000 -0.3137720000000  0.3137720000000 1.0   0.01
O      2 -0.5000000000000  0.0000000000000  0.0000000000000 1.0   0.10
S      3  0.0000000000000  0.0000000000000  0.0000000000000 1.0   0.13
Fe     4  0.0000000000000  0.5000000000000 -0.5000000000000 1.0   3.56
END
