TITL LFSO-Li4Fe3S3O2-201029-172625-01475c 0.0548 514.093428 -1.03450730E+004 24.0000 24.2091 24 (P3) n - 1
REM
REM Run started: Sat, 31 Oct 2020 03:42:49 +0000 in /scratch/scratch/uccabz1/launch_tmp/launcher_2020-10-30-05-28-04-426867
REM CASTEP 19.11| from code version Version unavailable
REM Functional Perdew Burke Ernzerhof Relativity Koelling-Harmon Dispersion off
REM Cut-off 340.0000 eV Grid scale 1.7500 Gmax 16.5316 1/A FBSC none
REM MP grid 2 2 2 Offset 0.000 0.000 0.000 No. kpts 4 Spacing 0.07
REM Total runtime: 120801 s
REM Overall efficiency: 92.0714 %
REM
REM
REM
REM compiler GCC version 4.9.2
REM options -cpp -iprefix /scratch/UCL/applications/gcc/4.9.2/bin/../lib/gcc/x86_64-unknown-linux-gnu/4.9.2/ -mtune=corei7 -march=x86-64 -g -O2
REM COMMAND_LINE
REM seed -1378744451 -632544163 1961645000 -1443914284 -1981308667 1395198054 -293274247 1680629356 -1647224035 197898520 1781942417 -560059519
REM
REM S 3|1.8|5|6|7|30:31:32(qc=5)
REM O 2|1.5|12|13|15|20:21(qc=5)
REM Li 1|1.3|8|9|10|10U:20(qc=5)
REM Fe 3|2.2|2.0|1.0|8|9|10|40:41:32(qc=5)
REM Fe d:4.0 
REM
CELL 1.54180    7.64508    8.81180    8.81180  120.00000   90.00000   90.00000
LATT -1
SFAC Li O  S  Fe 
Li     1  0.6122510000000  0.3937600000000  0.5254230000000 1.0  -0.01
Li     1  0.6122510000000  0.1316620000000 -0.3937600000000 1.0  -0.01
Li     1  0.6122510000000 -0.5254230000000 -0.1316620000000 1.0  -0.01
Li     1 -0.1034730000000 -0.5837610000000 -0.1068080000000 1.0  -0.04
Li     1 -0.1034730000000  0.4769520000000  0.5837610000000 1.0  -0.04
Li     1 -0.1034730000000  0.1068080000000 -0.4769520000000 1.0  -0.04
Li     1  0.4229500000000 -0.0000000000000  0.0000000000000 1.0  -0.00
Li     1 -0.0915370000000 -0.3333340000000  0.3333340000000 1.0   0.00
O      2 -0.2600410000000 -0.0920530000000 -0.4941230000000 1.0   0.15
O      2 -0.2600410000000 -0.4020700000000  0.0920530000000 1.0   0.15
O      2 -0.2600410000000  0.4941230000000  0.4020700000000 1.0   0.15
O      2 -0.2110600000000  0.3333330000000 -0.3333330000000 1.0   0.01
S      3  0.5406210000000 -0.2949930000000 -0.1905010000000 1.0   0.10
S      3  0.5406210000000  0.1044900000000  0.2949930000000 1.0   0.10
S      3  0.5406210000000  0.1905010000000 -0.1044900000000 1.0   0.10
S      3 -0.0041100000000  0.2791730000000  0.0648800000000 1.0   0.25
S      3 -0.0041100000000 -0.2142940000000 -0.2791730000000 1.0   0.25
S      3 -0.0041100000000 -0.0648800000000  0.2142940000000 1.0   0.25
Fe     4 -0.3236990000000  0.4058810000000  0.1585160000000 1.0   3.84
Fe     4 -0.3236990000000 -0.2473660000000 -0.4058810000000 1.0   3.84
Fe     4 -0.3236990000000 -0.1585160000000  0.2473660000000 1.0   3.84
Fe     4 -0.1686960000000  0.0543550000000 -0.1612690000000 1.0   3.71
Fe     4 -0.1686960000000 -0.2156250000000 -0.0543550000000 1.0   3.71
Fe     4 -0.1686960000000  0.1612690000000  0.2156250000000 1.0   3.71
END
