TITL LFSO-Li5FeS2O2-201026-175430-29e134 -0.0251 285.485344 -6.69070723E+003 6.00556 6.67588 20 (C2/c) n - 1
REM
REM Run started: Tue, 27 Oct 2020 01:21:59 +0000 in /lustre/scratch/uccabz1/launch_tmp/launcher_2020-10-26-17-54-27-565823
REM CASTEP 20.1 from code version af48c487+ pr-geom-scf-spinfix Tue Jun 2 15:39:59 2020 +0100
REM Functional Perdew Burke Ernzerhof Relativity Koelling-Harmon Dispersion off
REM Cut-off 340.0000 eV Grid scale 1.7500 Gmax 16.5316 1/A FBSC none
REM MP grid 6 6 2 Offset 0.000 0.000 0.000 No. kpts 21 Spacing 0.07
REM Total runtime: 33187.1 s
REM Overall efficiency: 73.5833 %
REM
REM
REM
REM compiler GCC version 4.9.2
REM options -cpp -iprefix /lustre/shared/ucl/apps/gcc/4.9.2/bin/../lib/gcc/x86_64-unknown-linux-gnu/4.9.2/ -mtune=corei7 -march=x86-64 -g -Og
REM COMMAND_LINE
REM seed 1833724155 -1553512079 1932589271 -775218153 -1510992281 -65572642 227322061 -2109486128 735699060 -1582994244 1771982090 -1827369187
REM
REM S 3|1.8|5|6|7|30:31:32(qc=5)
REM O 2|1.5|12|13|15|20:21(qc=5)
REM Li 1|1.3|8|9|10|10U:20(qc=5)
REM Fe 3|2.2|2.0|1.0|8|9|10|40:41:32(qc=5)
REM Fe d:4.0 
REM
CELL 1.54180    7.54815    7.54815   14.72220   83.30045   83.30045  155.81113
LATT -1
SFAC Li O  S  Fe 
Li     1 -0.8851820000000 -0.4476350000000 -0.4357170000000 1.0  -0.01
Li     1  0.4476350000000  0.8851820000000 -0.0642830000000 1.0  -0.01
Li     1  0.8851820000000  0.4476350000000  0.4357170000000 1.0  -0.01
Li     1 -0.4476350000000 -0.8851820000000  0.0642830000000 1.0  -0.01
Li     1 -0.3263320000000 -0.0801530000000  0.0861640000000 1.0   0.00
Li     1  0.0801530000000  0.3263320000000  0.4138360000000 1.0   0.00
Li     1  0.3263320000000  0.0801530000000 -0.0861640000000 1.0   0.00
Li     1 -0.0801530000000 -0.3263320000000 -0.4138360000000 1.0   0.00
Li     1 -0.2092200000000  0.2092200000000  0.2500000000000 1.0  -0.02
Li     1  0.2092200000000 -0.2092200000000 -0.2500000000000 1.0  -0.02
O      2  0.0548840000000  0.4533910000000  0.0998130000000 1.0   0.00
O      2 -0.4533910000000 -0.0548840000000  0.4001870000000 1.0   0.00
O      2 -0.0548840000000 -0.4533910000000 -0.0998130000000 1.0   0.00
O      2  0.4533910000000  0.0548840000000 -0.4001870000000 1.0   0.00
S      3 -0.2136470000000 -0.1055890000000 -0.3819940000000 1.0  -0.06
S      3  0.1055890000000  0.2136470000000 -0.1180060000000 1.0  -0.06
S      3  0.2136470000000  0.1055890000000  0.3819940000000 1.0  -0.06
S      3 -0.1055890000000 -0.2136470000000  0.1180060000000 1.0  -0.06
Fe     4  0.0569610000000 -0.0569610000000  0.2500000000000 1.0   3.15
Fe     4 -0.0569610000000  0.0569610000000 -0.2500000000000 1.0   3.15
END
