TITL LFSO-Li2Fe4S3O2-201025-122531-3388ba 0.0569 304.925412 -5.63482318E+003 -16.0000 16.2016 11 (Cm) n - 1
REM
REM Run started: Sun, 25 Oct 2020 16:54:35 +0000 in /scratch/scratch/uccabz1/launch_tmp/launcher_2020-10-25-12-25-29-733530
REM CASTEP 19.11| from code version Version unavailable
REM Functional Perdew Burke Ernzerhof Relativity Koelling-Harmon Dispersion off
REM Cut-off 340.0000 eV Grid scale 1.7500 Gmax 16.5316 1/A FBSC none
REM MP grid 4 2 2 Offset 0.000 0.000 0.000 No. kpts 6 Spacing 0.07
REM Total runtime: 17157.6 s
REM Overall efficiency: 78.4167 %
REM
REM
REM
REM compiler GCC version 4.9.2
REM options -cpp -iprefix /scratch/UCL/applications/gcc/4.9.2/bin/../lib/gcc/x86_64-unknown-linux-gnu/4.9.2/ -mtune=corei7 -march=x86-64 -g -O2
REM COMMAND_LINE
REM seed 531804940 -1409994957 -1656243101 1239355440 -365138290 419691209 2083192908 2084445808 1093743688 -1760540290 1883518652 293597157
REM
REM S 3|1.8|5|6|7|30:31:32(qc=5)
REM O 2|1.5|12|13|15|20:21(qc=5)
REM Li 1|1.3|8|9|10|10U:20(qc=5)
REM Fe 3|2.2|2.0|1.0|8|9|10|40:41:32(qc=5)
REM Fe d:4.0 
REM
CELL 1.54180    3.62024    9.28134    9.28134  101.23498   87.12500   87.12500
LATT -1
SFAC Li O  S  Fe 
Li     1  0.1644220000000 -0.4655970000000 -0.2732320000000 1.0   0.04
Li     1  0.1644220000000 -0.2732320000000 -0.4655970000000 1.0   0.04
O      2  0.4607260000000 -0.1822470000000  0.1212570000000 1.0  -0.12
O      2  0.4607260000000  0.1212570000000 -0.1822470000000 1.0  -0.12
S      3  0.0652380000000  0.4621410000000 -0.0352170000000 1.0  -0.07
S      3  0.0652380000000 -0.0352170000000  0.4621410000000 1.0  -0.07
S      3 -0.3708880000000 -0.3075040000000 -0.3075040000000 1.0  -0.05
Fe     4 -0.0592710000000 -0.1302260000000  0.2036160000000 1.0  -3.93
Fe     4 -0.0592710000000  0.2036160000000 -0.1302260000000 1.0  -3.93
Fe     4 -0.4325140000000 -0.0352800000000 -0.3660310000000 1.0  -3.89
Fe     4 -0.4325140000000 -0.3660310000000 -0.0352800000000 1.0  -3.89
END
