TITL LFSO-Li5FeSO3-201026-055001-9239b7 0.0074 304.027237 -6.95625227E+003 6.00051 9.56284 20 (C2) n - 1
REM
REM Run started: Mon, 26 Oct 2020 13:35:31 +0000 in /scratch/scratch/uccabz1/launch_tmp/launcher_2020-10-26-05-49-59-339072
REM CASTEP 19.11| from code version Version unavailable
REM Functional Perdew Burke Ernzerhof Relativity Koelling-Harmon Dispersion off
REM Cut-off 340.0000 eV Grid scale 1.7500 Gmax 16.5316 1/A FBSC none
REM MP grid 4 4 2 Offset 0.000 0.000 0.000 No. kpts 10 Spacing 0.07
REM Total runtime: 29782.6 s
REM Overall efficiency: 82.9231 %
REM
REM
REM
REM compiler GCC version 4.9.2
REM options -cpp -iprefix /scratch/UCL/applications/gcc/4.9.2/bin/../lib/gcc/x86_64-unknown-linux-gnu/4.9.2/ -mtune=corei7 -march=x86-64 -g -O2
REM COMMAND_LINE
REM seed 813531234 -1765077067 1329402359 -747147171 1770770936 1533151878 -1638805659 59439157 -1213680921 -1902251611 736532115 936941355
REM
REM S 3|1.8|5|6|7|30:31:32(qc=5)
REM O 2|1.5|12|13|15|20:21(qc=5)
REM Li 1|1.3|8|9|10|10U:20(qc=5)
REM Fe 3|2.2|2.0|1.0|8|9|10|40:41:32(qc=5)
REM Fe d:4.0 
REM
CELL 1.54180    6.59511    6.59511   10.61831   78.83362   78.83362   42.29514
LATT -1
SFAC Li O  S  Fe 
Li     1 -0.2062630000000  0.3161390000000  0.0747930000000 1.0   0.02
Li     1 -0.3161390000000  0.2062630000000 -0.0747930000000 1.0   0.02
Li     1  0.0946490000000  0.2747370000000  0.2741360000000 1.0   0.02
Li     1 -0.2747370000000 -0.0946490000000 -0.2741360000000 1.0   0.02
Li     1 -0.4296620000000 -0.3909550000000 -0.2618970000000 1.0   0.00
Li     1  0.3909550000000  0.4296620000000  0.2618970000000 1.0   0.00
Li     1  0.1575980000000  0.2338870000000 -0.1619900000000 1.0   0.03
Li     1 -0.2338870000000 -0.1575980000000  0.1619900000000 1.0   0.03
Li     1  0.2931530000000  0.3080000000000  0.0413560000000 1.0  -0.05
Li     1 -0.3080000000000 -0.2931530000000 -0.0413560000000 1.0  -0.05
O      2 -0.4163230000000  0.2203580000000  0.1172500000000 1.0  -0.03
O      2 -0.2203580000000  0.4163230000000 -0.1172500000000 1.0  -0.03
O      2  0.1072190000000 -0.5321800000000  0.3890120000000 1.0   0.17
O      2  0.5321800000000 -0.1072190000000 -0.3890120000000 1.0   0.17
O      2 -0.4943140000000  0.0905510000000 -0.1142980000000 1.0  -0.42
O      2 -0.0905510000000  0.4943140000000  0.1142980000000 1.0  -0.42
S      3  0.4886400000000 -0.2844320000000  0.2965330000000 1.0  -0.45
S      3  0.2844320000000 -0.4886400000000 -0.2965330000000 1.0  -0.45
Fe     4  0.2903580000000 -0.6865960000000  0.5486850000000 1.0   3.71
Fe     4  0.6865960000000 -0.2903580000000 -0.5486850000000 1.0   3.71
END
