TITL LFSO-LiFe3S4O-201028-111649-d569da 0.0677 485.325666 -8.87463860E+003 23.9569 24.2021 18 (P3) n - 1
REM
REM Run started: Wed, 28 Oct 2020 18:15:54 +0000 in /scratch/scratch/uccabz1/launch_tmp/launcher_2020-10-28-11-16-48-147759
REM CASTEP 19.11| from code version Version unavailable
REM Functional Perdew Burke Ernzerhof Relativity Koelling-Harmon Dispersion off
REM Cut-off 340.0000 eV Grid scale 1.7500 Gmax 16.5316 1/A FBSC none
REM MP grid 3 3 2 Offset 0.000 0.000 0.000 No. kpts 5 Spacing 0.07
REM Total runtime: 25693.8 s
REM Overall efficiency: 80.0909 %
REM
REM
REM
REM compiler GCC version 4.9.2
REM options -cpp -iprefix /scratch/UCL/applications/gcc/4.9.2/bin/../lib/gcc/x86_64-unknown-linux-gnu/4.9.2/ -mtune=corei7 -march=x86-64 -g -O2
REM COMMAND_LINE
REM seed -1211167298 -1162489096 1682973702 412004862 -1171274419 5346562 851437330 -978299097 842507068 -1304162390 -2078297495 -531306987
REM
REM S 3|1.8|5|6|7|30:31:32(qc=5)
REM O 2|1.5|12|13|15|20:21(qc=5)
REM Li 1|1.3|8|9|10|10U:20(qc=5)
REM Fe 3|2.2|2.0|1.0|8|9|10|40:41:32(qc=5)
REM Fe d:4.0 
REM
CELL 1.54180    6.99867    6.99867   11.44120   90.00000   90.00000  120.00000
LATT -1
SFAC Li O  S  Fe 
Li     1 -0.3333330000000  0.3333330000000 -0.5159730000000 1.0  -0.03
Li     1  0.3333330000000 -0.3333330000000 -0.0426390000000 1.0   0.00
O      2  0.3333330000000 -0.3333330000000 -0.5251150000000 1.0   0.22
O      2  0.0000000000000 -0.0000000000000  0.1719020000000 1.0   0.29
S      3 -0.1701720000000  0.1644160000000  0.3944260000000 1.0   0.11
S      3 -0.1644160000000 -0.3345890000000  0.3944260000000 1.0   0.11
S      3  0.3345890000000  0.1701720000000  0.3944260000000 1.0   0.11
S      3  0.0635120000000  0.2185570000000 -0.2893540000000 1.0   0.00
S      3 -0.2185570000000 -0.1550440000000 -0.2893540000000 1.0   0.00
S      3  0.1550440000000 -0.0635120000000 -0.2893540000000 1.0   0.00
S      3  0.3333330000000 -0.3333330000000  0.1670440000000 1.0  -0.04
S      3  0.3333330000000 -0.3333330000000 -0.2505150000000 1.0   0.06
Fe     4 -0.3498640000000 -0.1717400000000 -0.4896530000000 1.0   3.85
Fe     4  0.1717400000000 -0.1781240000000 -0.4896530000000 1.0   3.85
Fe     4  0.1781240000000  0.3498640000000 -0.4896530000000 1.0   3.85
Fe     4  0.1453630000000  0.2912500000000  0.2477860000000 1.0   3.85
Fe     4 -0.2912500000000 -0.1458870000000  0.2477860000000 1.0   3.85
Fe     4  0.1458870000000 -0.1453630000000  0.2477860000000 1.0   3.85
END
