TITL LFSO-Li3FeS2O-201025-034739-e73e0e -0.0223 120.523427 -2.50688470E+003 3.39928 3.57920 7 (C2) n - 1
REM
REM Run started: Sun, 25 Oct 2020 04:40:09 +0000 in /scratch/scratch/uccabz1/launch_tmp/launcher_2020-10-25-03-47-37-261114
REM CASTEP 19.11| from code version Version unavailable
REM Functional Perdew Burke Ernzerhof Relativity Koelling-Harmon Dispersion off
REM Cut-off 340.0000 eV Grid scale 1.7500 Gmax 16.5316 1/A FBSC none
REM MP grid 5 3 3 Offset 0.000 0.000 0.000 No. kpts 16 Spacing 0.07
REM Total runtime: 3521 s
REM Overall efficiency: 92.1538 %
REM
REM
REM
REM compiler GCC version 4.9.2
REM options -cpp -iprefix /scratch/UCL/applications/gcc/4.9.2/bin/../lib/gcc/x86_64-unknown-linux-gnu/4.9.2/ -mtune=corei7 -march=x86-64 -g -O2
REM COMMAND_LINE
REM seed -499007933 2042106018 2023114962 1214783212 -2100383630 -2112224185 49393907 1793842432 -637961545 573695342 1261720540 -208567365
REM
REM S 3|1.8|5|6|7|30:31:32(qc=5)
REM O 2|1.5|12|13|15|20:21(qc=5)
REM Li 1|1.3|8|9|10|10U:20(qc=5)
REM Fe 3|2.2|2.0|1.0|8|9|10|40:41:32(qc=5)
REM Fe d:4.0 
REM
CELL 1.54180    2.90942    6.88571    6.88571   68.70111  106.66128  106.66128
LATT -1
SFAC Li O  S  Fe 
Li     1  0.1493640000000  0.0013240000000  0.2238450000000 1.0   0.00
Li     1 -0.1493640000000 -0.2238450000000 -0.0013240000000 1.0   0.00
Li     1  0.0000000000000 -0.3570040000000  0.3570040000000 1.0  -0.04
O      2  0.5000000000000 -0.2055350000000  0.2055350000000 1.0   0.00
S      3 -0.2838100000000  0.3919430000000 -0.0578850000000 1.0   0.09
S      3  0.2838100000000  0.0578850000000 -0.3919430000000 1.0   0.09
Fe     4  0.0000000000000  0.2456370000000 -0.2456370000000 1.0   3.26
END
