TITL LFSO-Li2Fe3S2O2-201022-134840-e3b165 0.0373 280.042146 -8.93752474E+003 24.0000 24.2342 18 (I4) n - 1
REM
REM Run started: Thu, 22 Oct 2020 18:00:55 +0100 in /lustre/scratch/uccabz1/launch_tmp/launcher_2020-10-22-12-48-38-622263
REM CASTEP 20.1 from code version af48c487+ pr-geom-scf-spinfix Tue Jun 2 15:39:59 2020 +0100
REM Functional Perdew Burke Ernzerhof Relativity Koelling-Harmon Dispersion off
REM Cut-off 340.0000 eV Grid scale 1.7500 Gmax 16.5316 1/A FBSC none
REM MP grid 3 3 3 Offset 0.000 0.000 0.000 No. kpts 6 Spacing 0.07
REM Total runtime: 16575.8 s
REM Overall efficiency: 97.25 %
REM
REM
REM
REM compiler GCC version 4.9.2
REM options -cpp -iprefix /lustre/shared/ucl/apps/gcc/4.9.2/bin/../lib/gcc/x86_64-unknown-linux-gnu/4.9.2/ -mtune=corei7 -march=x86-64 -g -Og
REM COMMAND_LINE
REM seed 1177469452 1460012269 1433365540 -787928150 -1081149943 919329977 -1135541221 -254975455 -852409552 -1114316125 601533541 -361129835
REM
REM S 3|1.8|5|6|7|30:31:32(qc=5)
REM O 2|1.5|12|13|15|20:21(qc=5)
REM Li 1|1.3|8|9|10|10U:20(qc=5)
REM Fe 3|2.2|2.0|1.0|8|9|10|40:41:32(qc=5)
REM Fe d:4.0 
REM
CELL 1.54180    7.30549    7.30549    7.30549  126.43056  101.71689  101.71689
LATT -1
SFAC Li O  S  Fe 
Li     1  0.1511890000000  0.0158310000000 -0.2806110000000 1.0  -0.06
Li     1 -0.1511890000000  0.5682000000000 -0.1353580000000 1.0  -0.06
Li     1 -0.2964430000000 -0.2806110000000  0.5682000000000 1.0  -0.06
Li     1  0.2964430000000 -0.1353580000000  0.0158310000000 1.0  -0.06
O      2 -0.2302130000000 -0.4212300000000  0.2867740000000 1.0   0.21
O      2  0.2302130000000 -0.4830130000000 -0.1910170000000 1.0   0.21
O      2 -0.2919960000000  0.2867730000000 -0.4830130000000 1.0   0.21
O      2  0.2919960000000 -0.1910170000000 -0.4212300000000 1.0   0.21
S      3  0.1583260000000 -0.0216080000000  0.3191210000000 1.0   0.11
S      3 -0.1583260000000  0.1607950000000 -0.1799340000000 1.0   0.11
S      3  0.3407280000000  0.3191210000000  0.1607950000000 1.0   0.11
S      3 -0.3407280000000 -0.1799340000000 -0.0216080000000 1.0   0.11
Fe     4 -0.3370520000000  0.2433660000000  0.2160600000000 1.0   3.84
Fe     4  0.3370520000000 -0.4468880000000 -0.4195820000000 1.0   3.84
Fe     4 -0.0273060000000  0.2160600000000 -0.4468880000000 1.0   3.84
Fe     4  0.0273060000000 -0.4195820000000  0.2433670000000 1.0   3.84
Fe     4  0.5000000000000  0.5601330000000  0.0601330000000 1.0   3.81
Fe     4  0.5000000000000  0.0601330000000  0.5601330000000 1.0   3.81
END
