TITL LFSO-Li6FeSO3-201028-074126-142f3d 0.0282 344.549477 -7.35543787E+003 8.00000 8.19807 22 (C2/m) n - 1
REM
REM Run started: Wed, 28 Oct 2020 15:38:01 +0000 in /scratch/scratch/uccabz1/launch_tmp/launcher_2020-10-28-11-00-05-876859
REM CASTEP 19.11| from code version Version unavailable
REM Functional Perdew Burke Ernzerhof Relativity Koelling-Harmon Dispersion off
REM Cut-off 340.0000 eV Grid scale 1.7500 Gmax 16.5316 1/A FBSC none
REM MP grid 6 2 2 Offset 0.000 0.000 0.000 No. kpts 9 Spacing 0.07
REM Total runtime: 31821.8 s
REM Overall efficiency: 92.25 %
REM
REM
REM
REM compiler GCC version 4.9.2
REM options -cpp -iprefix /lustre/shared/ucl/apps/gcc/4.9.2/bin/../lib/gcc/x86_64-unknown-linux-gnu/4.9.2/ -mtune=corei7 -march=x86-64 -g -Og
REM COMMAND_LINE
REM seed 969992246 -547198562 -374684349 1955807217 -698351684 820755458 1890705791 344162899 1828419720 -889586374 -1143119969 -935373667
REM
REM S 3|1.8|5|6|7|30:31:32(qc=5)
REM O 2|1.5|12|13|15|20:21(qc=5)
REM Li 1|1.3|8|9|10|10U:20(qc=5)
REM Fe 3|2.2|2.0|1.0|8|9|10|40:41:32(qc=5)
REM Fe d:4.0 
REM
CELL 1.54180    3.63734   11.75160   11.75160   96.70879   61.27705   61.27705
LATT -1
SFAC Li O  S  Fe 
Li     1  0.4348630000000  0.3259080000000 -0.4566690000000 1.0  -0.00
Li     1 -0.4348630000000  0.4566690000000 -0.3259080000000 1.0  -0.00
Li     1 -0.4348630000000 -0.3259080000000  0.4566690000000 1.0  -0.00
Li     1  0.4348630000000 -0.4566690000000  0.3259080000000 1.0  -0.00
Li     1  0.0324020000000  0.3943480000000 -0.1614910000000 1.0   0.02
Li     1 -0.0324020000000  0.1614910000000 -0.3943480000000 1.0   0.02
Li     1 -0.0324020000000 -0.3943480000000  0.1614910000000 1.0   0.02
Li     1  0.0324020000000 -0.1614910000000  0.3943480000000 1.0   0.02
Li     1  0.5207850000000  0.1657630000000  0.3149420000000 1.0  -0.01
Li     1 -0.5207850000000 -0.3149420000000 -0.1657630000000 1.0  -0.01
Li     1 -0.5207850000000 -0.1657630000000 -0.3149420000000 1.0  -0.01
Li     1  0.5207850000000  0.3149420000000  0.1657630000000 1.0  -0.01
O      2 -0.0885880000000 -0.5055190000000 -0.2625110000000 1.0   0.01
O      2  0.0885880000000  0.2625110000000  0.5055190000000 1.0   0.01
O      2  0.0885880000000  0.5055190000000  0.2625110000000 1.0   0.01
O      2 -0.0885880000000 -0.2625110000000 -0.5055190000000 1.0   0.01
O      2  0.3162010000000 -0.1311680000000 -0.1311680000000 1.0   0.17
O      2 -0.3162010000000  0.1311680000000  0.1311680000000 1.0   0.17
S      3  0.0000000000000  0.2045020000000 -0.2045020000000 1.0   0.04
S      3  0.0000000000000 -0.2045020000000  0.2045020000000 1.0   0.04
Fe     4  0.0000000000000  0.0767320000000 -0.0767320000000 1.0   3.78
Fe     4  0.0000000000000 -0.0767320000000  0.0767320000000 1.0   3.78
END
