TITL LFSO-Li2Fe4S4O-201024-165825-ee9890 0.0113 477.709871 -5.49907715E+003 16.0000 16.3195 11 (Cmm2) n - 1
REM
REM Run started: Sat, 24 Oct 2020 20:47:03 +0100 in /lustre/scratch/uccabz1/launch_tmp/launcher_2020-10-24-15-58-20-988621
REM CASTEP 20.1 from code version af48c487+ pr-geom-scf-spinfix Tue Jun 2 15:39:59 2020 +0100
REM Functional Perdew Burke Ernzerhof Relativity Koelling-Harmon Dispersion off
REM Cut-off 340.0000 eV Grid scale 1.7500 Gmax 16.5316 1/A FBSC none
REM MP grid 4 2 2 Offset 0.000 0.000 0.000 No. kpts 4 Spacing 0.07
REM Total runtime: 15480.4 s
REM Overall efficiency: 85.3077 %
REM
REM
REM
REM compiler GCC version 4.9.2
REM options -cpp -iprefix /lustre/shared/ucl/apps/gcc/4.9.2/bin/../lib/gcc/x86_64-unknown-linux-gnu/4.9.2/ -mtune=corei7 -march=x86-64 -g -Og
REM COMMAND_LINE
REM seed -1858420971 -859265377 -966864254 -1140396398 237363778 278273663 1468042229 2067220379 -1022624171 -574936420 -1968638371 -393413720
REM
REM S 3|1.8|5|6|7|30:31:32(qc=5)
REM O 2|1.5|12|13|15|20:21(qc=5)
REM Li 1|1.3|8|9|10|10U:20(qc=5)
REM Fe 3|2.2|2.0|1.0|8|9|10|40:41:32(qc=5)
REM Fe d:4.0 
REM
CELL 1.54180    3.69571   11.36932   11.36932   89.80217   90.00000   90.00000
LATT -1
SFAC Li O  S  Fe 
Li     1  0.1694110000000 -0.2351500000000 -0.2351500000000 1.0  -0.04
Li     1  0.1694110000000  0.2351500000000  0.2351500000000 1.0  -0.04
O      2  0.1946730000000  0.0000000000000  0.0000000000000 1.0   0.23
S      3 -0.2862770000000  0.2910640000000  0.0548040000000 1.0   0.17
S      3 -0.2862770000000 -0.2910640000000 -0.0548040000000 1.0   0.17
S      3 -0.2862770000000  0.0548040000000  0.2910640000000 1.0   0.17
S      3 -0.2862770000000 -0.0548040000000 -0.2910640000000 1.0   0.17
Fe     4  0.2191500000000  0.1837170000000 -0.0005520000000 1.0   3.79
Fe     4  0.2191500000000 -0.1837170000000  0.0005520000000 1.0   3.79
Fe     4  0.2191500000000 -0.0005520000000  0.1837170000000 1.0   3.79
Fe     4  0.2191500000000  0.0005520000000 -0.1837170000000 1.0   3.79
END
