TITL LFSO-Li2FeSO-201025-141321-ee5c2c 0.0398 277.788959 -6.01035250E+003 12.0000 12.1206 15 (C2) n - 1
REM
REM Run started: Sun, 25 Oct 2020 23:23:03 +0000 in /scratch/scratch/uccabz1/launch_tmp/launcher_2020-10-25-14-13-42-526358
REM CASTEP 19.11| from code version Version unavailable
REM Functional Perdew Burke Ernzerhof Relativity Koelling-Harmon Dispersion off
REM Cut-off 340.0000 eV Grid scale 1.7500 Gmax 16.5316 1/A FBSC none
REM MP grid 4 3 3 Offset 0.000 0.000 0.000 No. kpts 18 Spacing 0.07
REM Total runtime: 40829.6 s
REM Overall efficiency: 85.0833 %
REM
REM
REM
REM compiler GCC version 4.9.2
REM options -cpp -iprefix /scratch/UCL/applications/gcc/4.9.2/bin/../lib/gcc/x86_64-unknown-linux-gnu/4.9.2/ -mtune=corei7 -march=x86-64 -g -O2
REM COMMAND_LINE
REM seed -1479503525 -936211191 -1133955649 167145892 399886569 1167087949 -545643359 -1881008 1240656777 1766952255 -1738876803 -277599908
REM
REM S 3|1.8|5|6|7|30:31:32(qc=5)
REM O 2|1.5|12|13|15|20:21(qc=5)
REM Li 1|1.3|8|9|10|10U:20(qc=5)
REM Fe 3|2.2|2.0|1.0|8|9|10|40:41:32(qc=5)
REM Fe d:4.0 
REM
CELL 1.54180    7.51188   10.71406    6.15949  116.38016   90.17458  134.23636
LATT -1
SFAC Li O  S  Fe 
Li     1  0.3967230000000 -0.4539690000000 -0.2137130000000 1.0  -0.08
Li     1  0.3895640000000  0.2402560000000 -0.2137130000000 1.0  -0.08
Li     1  0.1691790000000  0.2305200000000  0.1761830000000 1.0  -0.02
Li     1  0.0070040000000 -0.0543370000000  0.1761830000000 1.0  -0.02
Li     1 -0.1763920000000  0.4333840000000  0.1536420000000 1.0   0.01
Li     1  0.3300340000000 -0.2797420000000  0.1536420000000 1.0   0.01
O      2 -0.4614290000000 -0.6151100000000  0.1926240000000 1.0   0.13
O      2  0.6540530000000 -0.1922660000000  0.1926240000000 1.0   0.13
O      2  0.2646290000000  0.2646290000000  0.5292580000000 1.0   0.13
S      3 -0.0295920000000  0.6668080000000  0.0177050000000 1.0   0.07
S      3  0.0472970000000  0.3508970000000  0.0177050000000 1.0   0.07
S      3 -0.1319100000000 -0.1319100000000 -0.2638190000000 1.0   0.13
Fe     4 -0.0910160000000  0.0752780000000 -0.4090030000000 1.0   3.87
Fe     4 -0.3179870000000  0.5157190000000 -0.4090030000000 1.0   3.87
Fe     4 -0.3851520000000 -0.3851520000000  0.2296960000000 1.0   3.79
END
