TITL LFSO-Li6FeS3O-201027-193638-6f0030 -0.0353 204.986839 -3.41074488E+003 4.00000 4.12045 11 (R3) n - 1
REM
REM Run started: Tue, 27 Oct 2020 22:10:45 +0000 in /lustre/scratch/uccabz1/launch_tmp/launcher_2020-10-27-19-36-37-134522
REM CASTEP 20.1 from code version af48c487+ pr-geom-scf-spinfix Tue Jun 2 15:39:59 2020 +0100
REM Functional Perdew Burke Ernzerhof Relativity Koelling-Harmon Dispersion off
REM Cut-off 340.0000 eV Grid scale 1.7500 Gmax 16.5316 1/A FBSC none
REM MP grid 3 3 4 Offset 0.000 0.000 0.000 No. kpts 14 Spacing 0.07
REM Total runtime: 10311.5 s
REM Overall efficiency: 95.6667 %
REM
REM
REM
REM compiler GCC version 4.9.2
REM options -cpp -iprefix /lustre/shared/ucl/apps/gcc/4.9.2/bin/../lib/gcc/x86_64-unknown-linux-gnu/4.9.2/ -mtune=corei7 -march=x86-64 -g -Og
REM COMMAND_LINE
REM seed 519165101 1948949311 2076508440 1066248067 -1836618069 1332050363 -955445125 -1906411181 -1797199220 94995014 539310740 -16053089
REM
REM S 3|1.8|5|6|7|30:31:32(qc=5)
REM O 2|1.5|12|13|15|20:21(qc=5)
REM Li 1|1.3|8|9|10|10U:20(qc=5)
REM Fe 3|2.2|2.0|1.0|8|9|10|40:41:32(qc=5)
REM Fe d:4.0 
REM
CELL 1.54180    7.33498    7.33498    6.10647   53.08780   53.08780   60.00000
LATT -1
SFAC Li O  S  Fe 
Li     1 -0.0511740000000  0.1972890000000  0.1028580000000 1.0   0.02
Li     1 -0.2489740000000 -0.0511740000000  0.1028580000000 1.0   0.02
Li     1  0.1972890000000 -0.2489740000000  0.1028580000000 1.0   0.02
Li     1  0.3303890000000  0.1412590000000 -0.3447110000000 1.0  -0.04
Li     1 -0.1269370000000  0.3303890000000 -0.3447110000000 1.0  -0.04
Li     1  0.1412590000000 -0.1269370000000 -0.3447110000000 1.0  -0.04
O      2  0.0490760000000  0.0490760000000 -0.1472290000000 1.0   0.01
S      3 -0.4465740000000  0.3652290000000  0.1290290000000 1.0   0.12
S      3 -0.0476840000000 -0.4465740000000  0.1290290000000 1.0   0.12
S      3  0.3652290000000 -0.0476840000000  0.1290290000000 1.0   0.12
Fe     4  0.3069650000000  0.3069650000000  0.0791060000000 1.0   3.68
END
