TITL LFSO-LiFe3S4O-201028-161631-968969 -0.0180 185.361012 -4.43755550E+003 -2.69294 10.5034 9 (P2) n - 1
REM
REM Run started: Wed, 28 Oct 2020 18:47:06 +0000 in /scratch/scratch/uccabz1/launch_tmp/launcher_2020-10-28-16-16-29-930893
REM CASTEP 19.11| from code version Version unavailable
REM Functional Perdew Burke Ernzerhof Relativity Koelling-Harmon Dispersion off
REM Cut-off 340.0000 eV Grid scale 1.7500 Gmax 16.5316 1/A FBSC none
REM MP grid 2 5 3 Offset 0.000 0.000 0.000 No. kpts 10 Spacing 0.07
REM Total runtime: 9460.23 s
REM Overall efficiency: 83.4444 %
REM
REM
REM
REM compiler GCC version 4.9.2
REM options -cpp -iprefix /scratch/UCL/applications/gcc/4.9.2/bin/../lib/gcc/x86_64-unknown-linux-gnu/4.9.2/ -mtune=corei7 -march=x86-64 -g -O2
REM COMMAND_LINE
REM seed 2115180074 -685834137 -1209707704 337253540 -1155993429 1663077168 1453532180 2040499496 369198020 1461874829 -1308363848 -2117451398
REM
REM S 3|1.8|5|6|7|30:31:32(qc=5)
REM O 2|1.5|12|13|15|20:21(qc=5)
REM Li 1|1.3|8|9|10|10U:20(qc=5)
REM Fe 3|2.2|2.0|1.0|8|9|10|40:41:32(qc=5)
REM Fe d:4.0 
REM
CELL 1.54180    8.35753    3.53533    6.47330   90.00000   90.00000  104.27256
LATT -1
SFAC Li O  S  Fe 
Li     1 -0.5000000000000  0.5000000000000 -0.4556940000000 1.0   0.08
O      2  0.5000000000000 -0.0000000000000  0.0291610000000 1.0   0.04
S      3  0.2302960000000  0.3550560000000 -0.2443680000000 1.0   0.15
S      3 -0.2302960000000 -0.3550560000000 -0.2443680000000 1.0   0.15
S      3 -0.2366690000000 -0.3577290000000  0.2964700000000 1.0   0.11
S      3  0.2366690000000  0.3577290000000  0.2964700000000 1.0   0.11
Fe     4  0.2017480000000 -0.1614210000000 -0.4718090000000 1.0  -3.32
Fe     4 -0.2017480000000  0.1614210000000 -0.4718090000000 1.0  -3.32
Fe     4 -0.5000000000000  0.5000000000000  0.0707690000000 1.0   3.30
END
