TITL LFSO-Li2Fe3S3O-201025-212346-f0964b 0.0089 151.430309 -4.33577408E+003 11.9999 12.0281 9 (Imm2) n - 1
REM
REM Run started: Mon, 26 Oct 2020 00:14:45 +0000 in /lustre/scratch/uccabz1/launch_tmp/launcher_2020-10-25-21-23-44-272843
REM CASTEP 20.1 from code version af48c487+ pr-geom-scf-spinfix Tue Jun 2 15:39:59 2020 +0100
REM Functional Perdew Burke Ernzerhof Relativity Koelling-Harmon Dispersion off
REM Cut-off 340.0000 eV Grid scale 1.7500 Gmax 16.5316 1/A FBSC none
REM MP grid 3 3 5 Offset 0.000 0.000 0.000 No. kpts 16 Spacing 0.07
REM Total runtime: 12048.6 s
REM Overall efficiency: 96 %
REM
REM
REM
REM compiler GCC version 4.9.2
REM options -cpp -iprefix /lustre/shared/ucl/apps/gcc/4.9.2/bin/../lib/gcc/x86_64-unknown-linux-gnu/4.9.2/ -mtune=corei7 -march=x86-64 -g -Og
REM COMMAND_LINE
REM seed -2033198563 1522029762 2013813646 1793718401 1097732036 -1821240337 -1083413263 -1378631044 1149689542 -932682198 380713205 1976316043
REM
REM S 3|1.8|5|6|7|30:31:32(qc=5)
REM O 2|1.5|12|13|15|20:21(qc=5)
REM Li 1|1.3|8|9|10|10U:20(qc=5)
REM Fe 3|2.2|2.0|1.0|8|9|10|40:41:32(qc=5)
REM Fe d:4.0 
REM
CELL 1.54180    7.42472    7.42472    3.83988  105.07006  105.07006  122.03246
LATT -1
SFAC Li O  S  Fe 
Li     1 -0.2786300000000 -0.4815480000000 -0.2008900000000 1.0  -0.04
Li     1 -0.4815480000000 -0.2786300000000 -0.2008900000000 1.0  -0.04
O      2 -0.1578280000000 -0.1578280000000  0.0278550000000 1.0   0.13
S      3  0.0627190000000 -0.3915890000000 -0.4727560000000 1.0   0.14
S      3 -0.3915890000000  0.0627190000000 -0.4727560000000 1.0   0.14
S      3  0.3595790000000  0.3595790000000  0.0494970000000 1.0   0.12
Fe     4  0.0459530000000  0.3988580000000 -0.0840490000000 1.0   3.85
Fe     4  0.3988580000000  0.0459530000000 -0.0840490000000 1.0   3.85
Fe     4 -0.0664390000000 -0.0664390000000  0.6185020000000 1.0   3.85
END
