TITL LFSO-Li2FeSO-201023-053759-5d71ae 0.0383 305.960895 -8.01264757E+003 13.5441 14.7355 20 (P42) n - 1
REM
REM Run started: Fri, 23 Oct 2020 08:08:57 +0100 in /lustre/scratch/uccabz1/launch_tmp/launcher_2020-10-23-04-37-57-536091
REM CASTEP 20.1 from code version af48c487+ pr-geom-scf-spinfix Tue Jun 2 15:39:59 2020 +0100
REM Functional Perdew Burke Ernzerhof Relativity Koelling-Harmon Dispersion off
REM Cut-off 340.0000 eV Grid scale 1.7500 Gmax 16.5316 1/A FBSC none
REM MP grid 3 3 2 Offset 0.000 0.000 0.000 No. kpts 3 Spacing 0.07
REM Total runtime: 7930.82 s
REM Overall efficiency: 78.4 %
REM
REM
REM
REM compiler GCC version 4.9.2
REM options -cpp -iprefix /lustre/shared/ucl/apps/gcc/4.9.2/bin/../lib/gcc/x86_64-unknown-linux-gnu/4.9.2/ -mtune=corei7 -march=x86-64 -g -Og
REM COMMAND_LINE
REM seed 1478746134 -1796342804 -1625612132 1662201999 1826946005 1453363333 -789399145 1358124161 -1015907715 -1192452559 350173444 1528160782
REM
REM S 3|1.8|5|6|7|30:31:32(qc=5)
REM O 2|1.5|12|13|15|20:21(qc=5)
REM Li 1|1.3|8|9|10|10U:20(qc=5)
REM Fe 3|2.2|2.0|1.0|8|9|10|40:41:32(qc=5)
REM Fe d:4.0 
REM
CELL 1.54180    4.75531    4.75531   13.53030   90.00000   90.00000   90.00000
LATT -1
SFAC Li O  S  Fe 
Li     1  0.3111070000000  0.3068940000000 -0.2532990000000 1.0  -0.08
Li     1 -0.3111070000000 -0.3068940000000 -0.2532990000000 1.0  -0.08
Li     1 -0.3068940000000  0.3111070000000  0.2467010000000 1.0  -0.08
Li     1  0.3068940000000 -0.3111070000000  0.2467010000000 1.0  -0.08
Li     1  0.2403230000000  0.2387970000000  0.1222810000000 1.0   0.02
Li     1 -0.2403230000000 -0.2387970000000  0.1222810000000 1.0   0.02
Li     1 -0.2387970000000  0.2403230000000 -0.3777190000000 1.0   0.02
Li     1  0.2387970000000 -0.2403230000000 -0.3777190000000 1.0   0.02
O      2  0.2793570000000  0.2737980000000  0.2621450000000 1.0   0.10
O      2 -0.2793570000000 -0.2737980000000  0.2621450000000 1.0   0.10
O      2 -0.2737980000000  0.2793570000000 -0.2378550000000 1.0   0.10
O      2  0.2737980000000 -0.2793570000000 -0.2378550000000 1.0   0.10
S      3 -0.2513440000000  0.2527310000000  0.0610050000000 1.0  -0.12
S      3  0.2513440000000 -0.2527310000000  0.0610050000000 1.0  -0.12
S      3 -0.2527310000000 -0.2513440000000 -0.4389950000000 1.0  -0.12
S      3  0.2527310000000  0.2513440000000 -0.4389950000000 1.0  -0.12
Fe     4  0.2222290000000 -0.2582600000000 -0.1051800000000 1.0   3.47
Fe     4 -0.2222290000000  0.2582600000000 -0.1051800000000 1.0   3.47
Fe     4  0.2582600000000  0.2222290000000  0.3948200000000 1.0   3.47
Fe     4 -0.2582600000000 -0.2222290000000  0.3948200000000 1.0   3.47
END
