TITL LFSO-Li2Fe2S2O-201022-022424-1d2e9b -0.0590 175.758881 -3.16808615E+003 8.00000 8.09760 7 (Cm) n - 1
REM
REM Run started: Thu, 22 Oct 2020 04:22:42 +0100 in /scratch/scratch/uccabz1/launch_tmp/launcher_2020-10-22-01-24-21-266749
REM CASTEP 19.11| from code version Version unavailable
REM Functional Perdew Burke Ernzerhof Relativity Koelling-Harmon Dispersion off
REM Cut-off 340.0000 eV Grid scale 1.7500 Gmax 16.5316 1/A FBSC none
REM MP grid 3 3 3 Offset 0.000 0.000 0.000 No. kpts 10 Spacing 0.07
REM Total runtime: 7900.52 s
REM Overall efficiency: 92.3333 %
REM
REM
REM
REM compiler GCC version 4.9.2
REM options -cpp -iprefix /scratch/UCL/applications/gcc/4.9.2/bin/../lib/gcc/x86_64-unknown-linux-gnu/4.9.2/ -mtune=corei7 -march=x86-64 -g -O2
REM COMMAND_LINE
REM seed -935052548 1034429314 813117848 -391907445 1278801256 -532064063 1869518664 1595042882 -1863655793 2027093977 1062485912 962085497
REM
REM S 3|1.8|5|6|7|30:31:32(qc=5)
REM O 2|1.5|12|13|15|20:21(qc=5)
REM Li 1|1.3|8|9|10|10U:20(qc=5)
REM Fe 3|2.2|2.0|1.0|8|9|10|40:41:32(qc=5)
REM Fe d:4.0 
REM
CELL 1.54180    5.56171    5.56171    5.80460   97.71152   97.71152   84.48101
LATT -1
SFAC Li O  S  Fe 
Li     1  0.2104410000000 -0.1363360000000  0.2555790000000 1.0  -0.01
Li     1 -0.1363360000000  0.2104410000000  0.2555790000000 1.0  -0.01
O      2 -0.0623340000000 -0.0623340000000  0.0499800000000 1.0   0.21
S      3 -0.1522150000000 -0.6361560000000 -0.3543420000000 1.0   0.12
S      3 -0.6361560000000 -0.1522150000000 -0.3543420000000 1.0   0.12
Fe     4 -0.3031130000000  0.0552610000000 -0.2041220000000 1.0   3.79
Fe     4  0.0552610000000 -0.3031130000000 -0.2041220000000 1.0   3.79
END
