TITL LFSO-Li5FeSO3-201027-023514-fa7478 -0.0409 165.839671 -3.47692519E+003 5.00000 5.03305 10 (P3) n - 1
REM
REM Run started: Tue, 27 Oct 2020 05:13:55 +0000 in /scratch/scratch/uccabz1/launch_tmp/launcher_2020-10-27-02-35-11-307878
REM CASTEP 19.11| from code version Version unavailable
REM Functional Perdew Burke Ernzerhof Relativity Koelling-Harmon Dispersion off
REM Cut-off 340.0000 eV Grid scale 1.7500 Gmax 16.5316 1/A FBSC none
REM MP grid 2 4 4 Offset 0.000 0.000 0.000 No. kpts 16 Spacing 0.07
REM Total runtime: 10608.7 s
REM Overall efficiency: 94.6667 %
REM
REM
REM
REM compiler GCC version 4.9.2
REM options -cpp -iprefix /scratch/UCL/applications/gcc/4.9.2/bin/../lib/gcc/x86_64-unknown-linux-gnu/4.9.2/ -mtune=corei7 -march=x86-64 -g -O2
REM COMMAND_LINE
REM seed 1072481999 -544570634 -1407267508 1820794652 1534680328 1597470438 444929986 1145115526 1282598827 511889189 951131567 483230786
REM
REM S 3|1.8|5|6|7|30:31:32(qc=5)
REM O 2|1.5|12|13|15|20:21(qc=5)
REM Li 1|1.3|8|9|10|10U:20(qc=5)
REM Fe 3|2.2|2.0|1.0|8|9|10|40:41:32(qc=5)
REM Fe d:4.0 
REM
CELL 1.54180    6.88282    5.27467    5.27467  120.00000   90.00000   90.00000
LATT -1
SFAC Li O  S  Fe 
Li     1  0.4602690000000  0.2707580000000 -0.0024650000000 1.0  -0.02
Li     1  0.4602690000000 -0.2732230000000 -0.2707580000000 1.0  -0.02
Li     1  0.4602690000000  0.0024650000000  0.2732230000000 1.0  -0.02
Li     1  0.2358320000000  0.3333330000000 -0.3333330000000 1.0  -0.01
Li     1 -0.2228950000000  0.3333330000000 -0.3333330000000 1.0  -0.01
O      2  0.3384470000000 -0.3681390000000  0.0029820000000 1.0   0.32
O      2  0.3384470000000  0.3711210000000  0.3681390000000 1.0   0.32
O      2  0.3384470000000 -0.0029820000000 -0.3711210000000 1.0   0.32
S      3 -0.2421690000000 -0.0000000000000  0.0000000000000 1.0   0.02
Fe     4  0.2229310000000 -0.3333330000000  0.3333330000000 1.0   4.09
END
