TITL LFSO-Li2FeSO-201025-065754-fe9959 -0.0255 96.400292 -2.00142670E+003 3.90568 4.01577 5 (Cmm2) n - 1
REM
REM Run started: Sun, 25 Oct 2020 07:09:53 +0000 in /lustre/scratch/uccabz1/launch_tmp/launcher_2020-10-25-06-57-52-273633
REM CASTEP 20.1 from code version af48c487+ pr-geom-scf-spinfix Tue Jun 2 15:39:59 2020 +0100
REM Functional Perdew Burke Ernzerhof Relativity Koelling-Harmon Dispersion off
REM Cut-off 340.0000 eV Grid scale 1.7500 Gmax 16.5316 1/A FBSC none
REM MP grid 5 5 2 Offset 0.000 0.000 0.000 No. kpts 13 Spacing 0.07
REM Total runtime: 1198.04 s
REM Overall efficiency: 64.1667 %
REM
REM
REM
REM compiler GCC version 4.9.2
REM options -cpp -iprefix /lustre/shared/ucl/apps/gcc/4.9.2/bin/../lib/gcc/x86_64-unknown-linux-gnu/4.9.2/ -mtune=corei7 -march=x86-64 -g -Og
REM COMMAND_LINE
REM seed 264296537 1871972145 -2059112386 188060955 1357629734 1057205635 724963800 -318034801 -9138337 -1830504259 -929009988 499322137
REM
REM S 3|1.8|5|6|7|30:31:32(qc=5)
REM O 2|1.5|12|13|15|20:21(qc=5)
REM Li 1|1.3|8|9|10|10U:20(qc=5)
REM Fe 3|2.2|2.0|1.0|8|9|10|40:41:32(qc=5)
REM Fe d:4.0 
REM
CELL 1.54180    3.42452    3.45288    8.69334   90.00000   90.00000  110.31490
LATT -1
SFAC Li O  S  Fe 
Li     1  0.1824500000000  0.3152390000000  0.0249630000000 1.0  -0.02
Li     1 -0.1824500000000 -0.3152390000000  0.0249630000000 1.0  -0.02
O      2  0.5000000000000 -0.0000000000000  0.0123340000000 1.0   0.02
S      3  0.5000000000000 -0.0000000000000  0.4988270000000 1.0   0.26
Fe     4  0.0000000000000  0.5000000000000 -0.3819370000000 1.0   3.66
END
