TITL LFSO-Li2Fe4S4O-201024-231057-1926c4 0.0161 547.323341 -1.10033929E+004 32.0000 32.4052 22 (Cmc21) n - 1
REM
REM Run started: Sun, 25 Oct 2020 05:52:06 +0000 in /scratch/scratch/uccabz1/launch_tmp/launcher_2020-10-24-22-10-56-069819
REM CASTEP 19.11| from code version Version unavailable
REM Functional Perdew Burke Ernzerhof Relativity Koelling-Harmon Dispersion off
REM Cut-off 340.0000 eV Grid scale 1.7500 Gmax 16.5316 1/A FBSC none
REM MP grid 3 3 2 Offset 0.000 0.000 0.000 No. kpts 4 Spacing 0.07
REM Total runtime: 29916.6 s
REM Overall efficiency: 76.4167 %
REM
REM
REM
REM compiler GCC version 4.9.2
REM options -cpp -iprefix /scratch/UCL/applications/gcc/4.9.2/bin/../lib/gcc/x86_64-unknown-linux-gnu/4.9.2/ -mtune=corei7 -march=x86-64 -g -O2
REM COMMAND_LINE
REM seed -1480137536 497648485 1767920953 -360355269 1898007428 -1906861518 1975867982 801058616 -1034703558 839574793 257004492 565166406
REM
REM S 3|1.8|5|6|7|30:31:32(qc=5)
REM O 2|1.5|12|13|15|20:21(qc=5)
REM Li 1|1.3|8|9|10|10U:20(qc=5)
REM Fe 3|2.2|2.0|1.0|8|9|10|40:41:32(qc=5)
REM Fe d:4.0 
REM
CELL 1.54180    6.94001    6.94001   13.34997   90.00000   90.00000  121.65492
LATT -1
SFAC Li O  S  Fe 
Li     1  0.3062380000000  0.0802470000000  0.1187360000000 1.0  -0.05
Li     1 -0.3062380000000 -0.0802470000000 -0.3812640000000 1.0  -0.05
Li     1 -0.0802470000000 -0.3062380000000 -0.3812640000000 1.0  -0.05
Li     1  0.0802470000000  0.3062380000000  0.1187360000000 1.0  -0.05
O      2  0.0012010000000  0.0012010000000  0.1655410000000 1.0   0.16
O      2 -0.0012010000000 -0.0012010000000 -0.3344590000000 1.0   0.16
S      3  0.3488640000000  0.0560690000000 -0.1124710000000 1.0   0.12
S      3 -0.3488640000000 -0.0560690000000  0.3875290000000 1.0   0.12
S      3 -0.0560690000000 -0.3488640000000  0.3875290000000 1.0   0.12
S      3  0.0560690000000  0.3488640000000 -0.1124710000000 1.0   0.12
S      3 -0.2776080000000  0.3182720000000  0.1306900000000 1.0   0.12
S      3  0.2776080000000 -0.3182720000000 -0.3693100000000 1.0   0.12
S      3 -0.3182720000000  0.2776080000000 -0.3693100000000 1.0   0.12
S      3  0.3182720000000 -0.2776080000000  0.1306900000000 1.0   0.12
Fe     4  0.2946160000000 -0.2494630000000  0.4563290000000 1.0   3.83
Fe     4 -0.2946160000000  0.2494630000000 -0.0436710000000 1.0   3.83
Fe     4  0.2494630000000 -0.2946160000000 -0.0436710000000 1.0   3.83
Fe     4 -0.2494630000000  0.2946160000000  0.4563290000000 1.0   3.83
Fe     4  0.2933630000000  0.0371460000000 -0.2920360000000 1.0   3.91
Fe     4 -0.2933630000000 -0.0371460000000  0.2079640000000 1.0   3.91
Fe     4 -0.0371460000000 -0.2933630000000  0.2079640000000 1.0   3.91
Fe     4  0.0371460000000  0.2933630000000 -0.2920360000000 1.0   3.91
END
