TITL LFSO-Li4Fe3S3O2-201030-000728-fc7a58 -0.0085 487.238917 -1.03471541E+004 24.0000 24.4752 24 (P3) n - 1
REM
REM Run started: Fri, 30 Oct 2020 14:07:07 +0000 in /lustre/scratch/uccabz1/launch_tmp/launcher_2020-10-30-00-07-26-770944
REM CASTEP 20.1 from code version af48c487+ pr-geom-scf-spinfix Tue Jun 2 15:39:59 2020 +0100
REM Functional Perdew Burke Ernzerhof Relativity Koelling-Harmon Dispersion off
REM Cut-off 340.0000 eV Grid scale 1.7500 Gmax 16.5316 1/A FBSC none
REM MP grid 3 3 2 Offset 0.000 0.000 0.000 No. kpts 5 Spacing 0.07
REM Total runtime: 54381.4 s
REM Overall efficiency: 72.0833 %
REM
REM
REM
REM compiler GCC version 4.9.2
REM options -cpp -iprefix /lustre/shared/ucl/apps/gcc/4.9.2/bin/../lib/gcc/x86_64-unknown-linux-gnu/4.9.2/ -mtune=corei7 -march=x86-64 -g -Og
REM COMMAND_LINE
REM seed 1413793489 929256630 1803393321 248434812 -589000558 -650592288 1943259012 -1853866335 233561632 -358155021 1573882496 24451032
REM
REM S 3|1.8|5|6|7|30:31:32(qc=5)
REM O 2|1.5|12|13|15|20:21(qc=5)
REM Li 1|1.3|8|9|10|10U:20(qc=5)
REM Fe 3|2.2|2.0|1.0|8|9|10|40:41:32(qc=5)
REM Fe d:4.0 
REM
CELL 1.54180    7.71061    7.71061    9.46312   90.00000   90.00000  120.00000
LATT -1
SFAC Li O  S  Fe 
Li     1 -0.2981960000000 -0.2797250000000  0.2834050000000 1.0  -0.01
Li     1  0.0184700000000  0.2981960000000  0.2834050000000 1.0  -0.01
Li     1  0.2797250000000 -0.0184700000000  0.2834050000000 1.0  -0.01
Li     1  0.1223690000000 -0.3349480000000  0.1344030000000 1.0  -0.03
Li     1  0.5426820000000 -0.1223690000000  0.1344030000000 1.0  -0.03
Li     1  0.3349480000000 -0.5426820000000  0.1344030000000 1.0  -0.03
Li     1 -0.3333330000000  0.3333330000000  0.3566010000000 1.0   0.02
Li     1 -0.3333330000000  0.3333330000000 -0.2894590000000 1.0  -0.07
O      2 -0.4071360000000 -0.3291680000000  0.1006980000000 1.0   0.15
O      2  0.0779670000000  0.4071360000000  0.1006980000000 1.0   0.15
O      2  0.3291680000000 -0.0779670000000  0.1006980000000 1.0   0.15
O      2 -0.3333330000000  0.3333330000000 -0.0855730000000 1.0   0.22
S      3 -0.0309740000000 -0.3459440000000  0.3597590000000 1.0   0.10
S      3 -0.3149700000000  0.0309740000000  0.3597590000000 1.0   0.10
S      3  0.3459440000000  0.3149700000000  0.3597590000000 1.0   0.10
S      3 -0.0191300000000  0.3007630000000 -0.3071930000000 1.0   0.12
S      3  0.3198940000000  0.0191300000000 -0.3071930000000 1.0   0.12
S      3 -0.3007630000000 -0.3198940000000 -0.3071930000000 1.0   0.12
Fe     4  0.2381800000000  0.2500230000000 -0.4115100000000 1.0   3.81
Fe     4  0.0118420000000 -0.2381800000000 -0.4115100000000 1.0   3.81
Fe     4 -0.2500230000000 -0.0118420000000 -0.4115100000000 1.0   3.81
Fe     4  0.4097820000000  0.0739860000000 -0.0617000000000 1.0   3.80
Fe     4 -0.3357970000000 -0.4097820000000 -0.0617000000000 1.0   3.80
Fe     4 -0.0739860000000  0.3357970000000 -0.0617000000000 1.0   3.80
END
