TITL LFSO-Li6FeSO3-201028-071557-b2ff3c 0.0758 504.126412 -7.35694363E+003 8.00000 8.25042 22 (Pm) n - 1
REM
REM Run started: Wed, 28 Oct 2020 17:29:46 +0000 in /lustre/scratch/uccabz1/launch_tmp/launcher_2020-10-28-07-15-56-008872
REM CASTEP 20.1 from code version af48c487+ pr-geom-scf-spinfix Tue Jun 2 15:39:59 2020 +0100
REM Functional Perdew Burke Ernzerhof Relativity Koelling-Harmon Dispersion off
REM Cut-off 340.0000 eV Grid scale 1.7500 Gmax 16.5316 1/A FBSC none
REM MP grid 4 2 3 Offset 0.000 0.000 0.000 No. kpts 6 Spacing 0.07
REM Total runtime: 41671 s
REM Overall efficiency: 92.6923 %
REM
REM
REM
REM compiler GCC version 4.9.2
REM options -cpp -iprefix /lustre/shared/ucl/apps/gcc/4.9.2/bin/../lib/gcc/x86_64-unknown-linux-gnu/4.9.2/ -mtune=corei7 -march=x86-64 -g -Og
REM COMMAND_LINE
REM seed 1888264951 -727947148 -1661102608 -1065664639 1371805650 -1169518579 1886280523 2005942491 -217102743 1295005140 -1871170132 172036393
REM
REM S 3|1.8|5|6|7|30:31:32(qc=5)
REM O 2|1.5|12|13|15|20:21(qc=5)
REM Li 1|1.3|8|9|10|10U:20(qc=5)
REM Fe 3|2.2|2.0|1.0|8|9|10|40:41:32(qc=5)
REM Fe d:4.0 
REM
CELL 1.54180    7.09770   12.38083    9.90428   90.00000  144.60377   90.00000
LATT -1
SFAC Li O  S  Fe 
Li     1  0.3648030000000  0.1775210000000 -0.3259790000000 1.0  -0.01
Li     1  0.3648030000000 -0.1775210000000 -0.3259790000000 1.0  -0.01
Li     1 -0.3216560000000 -0.1329990000000 -0.4332110000000 1.0  -0.02
Li     1 -0.3216560000000  0.1329990000000 -0.4332110000000 1.0  -0.02
Li     1  0.0545850000000 -0.1942570000000 -0.0394640000000 1.0   0.02
Li     1  0.0545850000000  0.1942570000000 -0.0394640000000 1.0   0.02
Li     1  0.6302790000000  0.1624010000000  0.2770710000000 1.0   0.00
Li     1  0.6302790000000 -0.1624010000000  0.2770710000000 1.0   0.00
Li     1  0.0382160000000 -0.1540190000000  0.2417950000000 1.0  -0.00
Li     1  0.0382160000000  0.1540190000000  0.2417950000000 1.0  -0.00
Li     1  0.6778720000000  0.0000000000000  0.1471550000000 1.0  -0.08
Li     1  0.3893100000000  0.0000000000000  0.5652480000000 1.0  -0.05
O      2 -0.0120320000000  0.1076000000000  0.3936860000000 1.0   0.09
O      2 -0.0120320000000 -0.1076000000000  0.3936860000000 1.0   0.09
O      2  0.3140200000000 -0.1327430000000  0.2453580000000 1.0   0.06
O      2  0.3140200000000  0.1327430000000  0.2453580000000 1.0   0.06
O      2 -0.3100940000000 -0.1163240000000 -0.2387890000000 1.0   0.08
O      2 -0.3100940000000  0.1163240000000 -0.2387890000000 1.0   0.08
S      3  0.2554940000000  0.1575460000000 -0.1540470000000 1.0   0.06
S      3  0.2554940000000 -0.1575460000000 -0.1540470000000 1.0   0.06
Fe     4  0.0159780000000  0.0000000000000  0.0198360000000 1.0   3.79
Fe     4  0.0884140000000  0.0000000000000 -0.3919890000000 1.0   3.77
END
