TITL LFSO-Li4Fe2S3O-201026-004230-0c6acb 0.0161 368.927785 -7.74533275E+003 16.0000 16.1856 20 (R3) n - 1
REM
REM Run started: Mon, 26 Oct 2020 07:06:14 +0000 in /lustre/scratch/uccabz1/launch_tmp/launcher_2020-10-26-00-42-28-740993
REM CASTEP 20.1 from code version af48c487+ pr-geom-scf-spinfix Tue Jun 2 15:39:59 2020 +0100
REM Functional Perdew Burke Ernzerhof Relativity Koelling-Harmon Dispersion off
REM Cut-off 340.0000 eV Grid scale 1.7500 Gmax 16.5316 1/A FBSC none
REM MP grid 2 2 2 Offset 0.000 0.000 0.000 No. kpts 2 Spacing 0.07
REM Total runtime: 23175.7 s
REM Overall efficiency: 89.1429 %
REM
REM
REM
REM compiler GCC version 4.9.2
REM options -cpp -iprefix /lustre/shared/ucl/apps/gcc/4.9.2/bin/../lib/gcc/x86_64-unknown-linux-gnu/4.9.2/ -mtune=corei7 -march=x86-64 -g -Og
REM COMMAND_LINE
REM seed -836435609 370346592 -460562282 1697492037 -451152213 -431576096 1999823098 399879154 -1934788913 -643351030 -2110957533 -1043800478
REM
REM S 3|1.8|5|6|7|30:31:32(qc=5)
REM O 2|1.5|12|13|15|20:21(qc=5)
REM Li 1|1.3|8|9|10|10U:20(qc=5)
REM Fe 3|2.2|2.0|1.0|8|9|10|40:41:32(qc=5)
REM Fe d:4.0 
REM
CELL 1.54180    7.19384    7.19384    7.19384   94.33285   94.33285   94.33285
LATT -1
SFAC Li O  S  Fe 
Li     1  0.2039290000000  0.3888370000000 -0.2617190000000 1.0   0.01
Li     1 -0.2617190000000  0.2039290000000  0.3888370000000 1.0   0.01
Li     1  0.3888370000000 -0.2617190000000  0.2039290000000 1.0   0.01
Li     1  0.3882390000000  0.2864840000000  0.1371710000000 1.0  -0.03
Li     1  0.1371710000000  0.3882390000000  0.2864840000000 1.0  -0.03
Li     1  0.2864840000000  0.1371710000000  0.3882390000000 1.0  -0.03
Li     1 -0.4648000000000 -0.4648000000000 -0.4648000000000 1.0   0.03
Li     1 -0.2172110000000 -0.2172110000000 -0.2172110000000 1.0  -0.13
O      2  0.3836740000000  0.3836740000000  0.3836740000000 1.0   0.03
O      2  0.1557630000000  0.1557630000000  0.1557630000000 1.0   0.13
S      3 -0.4666660000000  0.3927860000000 -0.1431260000000 1.0   0.08
S      3 -0.1431260000000 -0.4666660000000  0.3927860000000 1.0   0.08
S      3  0.3927860000000 -0.1431260000000 -0.4666660000000 1.0   0.08
S      3 -0.0582350000000  0.0641350000000 -0.3514370000000 1.0   0.14
S      3 -0.3514370000000 -0.0582350000000  0.0641350000000 1.0   0.14
S      3  0.0641350000000 -0.3514370000000 -0.0582350000000 1.0   0.14
Fe     4 -0.4934660000000  0.0588840000000 -0.1995900000000 1.0   3.82
Fe     4 -0.1995900000000 -0.4934660000000  0.0588840000000 1.0   3.82
Fe     4  0.0588840000000 -0.1995900000000 -0.4934660000000 1.0   3.82
Fe     4 -0.0071570000000 -0.0071570000000 -0.0071570000000 1.0   3.87
END
