TITL LFSO-Li2Fe4S3O2-201026-114613-593c97 0.0433 398.718433 -1.12702747E+004 32.0000 32.3293 22 (R3) n - 1
REM
REM Run started: Tue, 27 Oct 2020 02:18:48 +0000 in /lustre/scratch/uccabz1/launch_tmp/launcher_2020-10-27-02-03-52-843976
REM CASTEP 20.1 from code version af48c487+ pr-geom-scf-spinfix Tue Jun 2 15:39:59 2020 +0100
REM Functional Perdew Burke Ernzerhof Relativity Koelling-Harmon Dispersion off
REM Cut-off 340.0000 eV Grid scale 1.7500 Gmax 16.5316 1/A FBSC none
REM MP grid 2 2 2 Offset 0.000 0.000 0.000 No. kpts 2 Spacing 0.07
REM Total runtime: 51659.8 s
REM Overall efficiency: 85.2 %
REM
REM
REM
REM compiler GCC version 4.9.2
REM options -cpp -iprefix /lustre/shared/ucl/apps/gcc/4.9.2/bin/../lib/gcc/x86_64-unknown-linux-gnu/4.9.2/ -mtune=corei7 -march=x86-64 -g -Og
REM COMMAND_LINE
REM seed -1655709814 -1688318210 1026410121 -1493917627 -1767589675 1574227592 1285988787 889923448 -1161612420 -759500530 1849822718 631598486
REM
REM S 3|1.8|5|6|7|30:31:32(qc=5)
REM O 2|1.5|12|13|15|20:21(qc=5)
REM Li 1|1.3|8|9|10|10U:20(qc=5)
REM Fe 3|2.2|2.0|1.0|8|9|10|40:41:32(qc=5)
REM Fe d:4.0 
REM
CELL 1.54180    7.59484    7.59484    7.59484   74.72554   74.72554   74.72554
LATT -1
SFAC Li O  S  Fe 
Li     1  0.3627030000000  0.0635840000000 -0.4373490000000 1.0  -0.03
Li     1 -0.4373490000000  0.3627030000000  0.0635840000000 1.0  -0.03
Li     1  0.0635840000000 -0.4373490000000  0.3627030000000 1.0  -0.03
Li     1  0.1853360000000  0.1853360000000  0.1853360000000 1.0   0.01
O      2  0.3152150000000  0.3114710000000 -0.3576230000000 1.0   0.20
O      2 -0.3576230000000  0.3152150000000  0.3114710000000 1.0   0.20
O      2  0.3114710000000 -0.3576230000000  0.3152150000000 1.0   0.20
O      2  0.0704210000000  0.0704210000000  0.0704210000000 1.0   0.11
S      3  0.6148980000000 -0.1284290000000  0.3997000000000 1.0   0.11
S      3  0.3997000000000  0.6148980000000 -0.1284290000000 1.0   0.11
S      3 -0.1284290000000  0.3997000000000  0.6148980000000 1.0   0.11
S      3 -0.4071760000000  0.0828780000000 -0.0546640000000 1.0   0.16
S      3 -0.0546640000000 -0.4071760000000  0.0828780000000 1.0   0.16
S      3  0.0828780000000 -0.0546640000000 -0.4071760000000 1.0   0.16
Fe     4  0.2211890000000 -0.1941950000000  0.0898180000000 1.0   3.87
Fe     4  0.0898180000000  0.2211890000000 -0.1941950000000 1.0   3.87
Fe     4 -0.1941950000000  0.0898180000000  0.2211890000000 1.0   3.87
Fe     4  0.6136850000000 -0.4052760000000  0.2734530000000 1.0   3.83
Fe     4  0.2734530000000  0.6136850000000 -0.4052760000000 1.0   3.83
Fe     4 -0.4052760000000  0.2734530000000  0.6136850000000 1.0   3.83
Fe     4 -0.1334550000000 -0.1334550000000 -0.1334550000000 1.0   3.70
Fe     4 -0.3241760000000 -0.3241760000000 -0.3241760000000 1.0   3.75
END
