TITL LFSO-Li2Fe4S3O2-201026-213705-f3c107 -0.0690 161.656954 -5.63380584E+003 15.9990 16.0505 11 (P31m) n - 1
REM
REM Run started: Mon, 26 Oct 2020 23:16:38 +0000 in /scratch/scratch/uccabz1/launch_tmp/launcher_2020-10-26-21-37-04-360638
REM CASTEP 19.11| from code version Version unavailable
REM Functional Perdew Burke Ernzerhof Relativity Koelling-Harmon Dispersion off
REM Cut-off 340.0000 eV Grid scale 1.7500 Gmax 16.5316 1/A FBSC none
REM MP grid 3 3 4 Offset 0.000 0.000 0.000 No. kpts 10 Spacing 0.07
REM Total runtime: 6009.17 s
REM Overall efficiency: 81.5556 %
REM
REM
REM
REM compiler GCC version 4.9.2
REM options -cpp -iprefix /scratch/UCL/applications/gcc/4.9.2/bin/../lib/gcc/x86_64-unknown-linux-gnu/4.9.2/ -mtune=corei7 -march=x86-64 -g -O2
REM COMMAND_LINE
REM seed -330390528 141246096 1127286460 -1743218459 1768268945 -132296939 -1225865167 -97231600 1679509981 -228749272 -1133057497 -1281379492
REM
REM S 3|1.8|5|6|7|30:31:32(qc=5)
REM O 2|1.5|12|13|15|20:21(qc=5)
REM Li 1|1.3|8|9|10|10U:20(qc=5)
REM Fe 3|2.2|2.0|1.0|8|9|10|40:41:32(qc=5)
REM Fe d:4.0 
REM
CELL 1.54180    6.85312    6.85312    3.97454   90.00000   90.00000  120.00000
LATT -1
SFAC Li O  S  Fe 
Li     1  0.3333330000000 -0.3333330000000 -0.2476160000000 1.0  -0.09
Li     1 -0.3333330000000  0.3333330000000 -0.2489240000000 1.0  -0.09
O      2  0.3333330000000 -0.3333330000000  0.2855040000000 1.0   0.13
O      2 -0.3333330000000  0.3333330000000 -0.7128250000000 1.0   0.13
S      3 -0.0023540000000 -0.2712170000000 -0.1260490000000 1.0   0.15
S      3  0.2712170000000  0.2688630000000 -0.1260490000000 1.0   0.15
S      3 -0.2688630000000  0.0023540000000 -0.1260490000000 1.0   0.15
Fe     4 -0.0005460000000  0.4230820000000  0.1927190000000 1.0   3.86
Fe     4 -0.4230820000000 -0.4236280000000  0.1927190000000 1.0   3.86
Fe     4  0.4236280000000  0.0005460000000  0.1927190000000 1.0   3.86
Fe     4 -0.0000000000000  0.0000000000000  0.4356420000000 1.0   3.87
END
