TITL LFSO-Li2FeSO-201025-045934-5d7615 -0.0441 328.582937 -6.00752508E+003 11.6038 11.8837 15 (Imm2) n - 1
REM
REM Run started: Sun, 25 Oct 2020 09:35:26 +0000 in /lustre/scratch/uccabz1/launch_tmp/launcher_2020-10-25-04-59-32-619325
REM CASTEP 20.1 from code version af48c487+ pr-geom-scf-spinfix Tue Jun 2 15:39:59 2020 +0100
REM Functional Perdew Burke Ernzerhof Relativity Koelling-Harmon Dispersion off
REM Cut-off 340.0000 eV Grid scale 1.7500 Gmax 16.5316 1/A FBSC none
REM MP grid 3 2 2 Offset 0.000 0.000 0.000 No. kpts 5 Spacing 0.07
REM Total runtime: 17132.7 s
REM Overall efficiency: 92.2857 %
REM
REM
REM
REM compiler GCC version 4.9.2
REM options -cpp -iprefix /lustre/shared/ucl/apps/gcc/4.9.2/bin/../lib/gcc/x86_64-unknown-linux-gnu/4.9.2/ -mtune=corei7 -march=x86-64 -g -Og
REM COMMAND_LINE
REM seed -659514554 -1650832736 273735282 -987755011 -1649458401 969089574 101070226 113040277 1905904707 -2041129231 2093248782 261239331
REM
REM S 3|1.8|5|6|7|30:31:32(qc=5)
REM O 2|1.5|12|13|15|20:21(qc=5)
REM Li 1|1.3|8|9|10|10U:20(qc=5)
REM Fe 3|2.2|2.0|1.0|8|9|10|40:41:32(qc=5)
REM Fe d:4.0 
REM
CELL 1.54180    6.38723    7.85621    7.85621   77.82570   66.01431   66.01431
LATT -1
SFAC Li O  S  Fe 
Li     1  0.0580970000000 -0.0254610000000 -0.4910880000000 1.0  -0.06
Li     1 -0.5415480000000  0.5089120000000 -0.0254610000000 1.0  -0.06
Li     1  0.0580970000000  0.5089120000000 -0.0254610000000 1.0  -0.06
Li     1 -0.5415480000000 -0.0254610000000 -0.4910880000000 1.0  -0.06
Li     1 -0.1629540000000 -0.0323360000000 -0.0323360000000 1.0  -0.01
Li     1  0.2276250000000 -0.0323360000000 -0.0323360000000 1.0  -0.01
O      2  0.2908640000000 -0.6490010000000  0.0672730000000 1.0   0.12
O      2  0.2908640000000  0.0672730000000 -0.6490010000000 1.0   0.12
O      2 -0.0928870000000  0.0928870000000  0.0928870000000 1.0   0.11
S      3 -0.0193520000000 -0.2486000000000 -0.2486000000000 1.0   0.07
S      3 -0.4834480000000  0.7514000000000 -0.2486000000000 1.0   0.07
S      3 -0.3856370000000  0.3856370000000  0.3856370000000 1.0   0.08
Fe     4  0.0471990000000  0.2148780000000  0.2148780000000 1.0   3.82
Fe     4  0.5230450000000 -0.7851220000000  0.2148780000000 1.0   3.82
Fe     4  0.3917510000000 -0.3917510000000 -0.3917510000000 1.0   3.65
END
