TITL LFSO-Li6FeS3O-201027-141414-97e81c 0.0069 174.332634 -3.41258632E+003 4.00000 4.06282 11 (Pm) n - 1
REM
REM Run started: Tue, 27 Oct 2020 14:54:32 +0000 in /lustre/scratch/uccabz1/launch_tmp/launcher_2020-10-27-14-14-12-787576
REM CASTEP 20.1 from code version af48c487+ pr-geom-scf-spinfix Tue Jun 2 15:39:59 2020 +0100
REM Functional Perdew Burke Ernzerhof Relativity Koelling-Harmon Dispersion off
REM Cut-off 340.0000 eV Grid scale 1.7500 Gmax 16.5316 1/A FBSC none
REM MP grid 4 4 2 Offset 0.000 0.000 0.000 No. kpts 8 Spacing 0.07
REM Total runtime: 2604.28 s
REM Overall efficiency: 92.4286 %
REM
REM
REM
REM compiler GCC version 4.9.2
REM options -cpp -iprefix /lustre/shared/ucl/apps/gcc/4.9.2/bin/../lib/gcc/x86_64-unknown-linux-gnu/4.9.2/ -mtune=corei7 -march=x86-64 -g -Og
REM COMMAND_LINE
REM seed 102859474 -2023229431 967906866 1477095930 1121263855 235805500 741964051 1487154699 540068229 106533946 1834132949 -427086787
REM
REM S 3|1.8|5|6|7|30:31:32(qc=5)
REM O 2|1.5|12|13|15|20:21(qc=5)
REM Li 1|1.3|8|9|10|10U:20(qc=5)
REM Fe 3|2.2|2.0|1.0|8|9|10|40:41:32(qc=5)
REM Fe d:4.0 
REM
CELL 1.54180    3.91353    4.38964   10.14804   90.00000   90.00000   90.14544
LATT -1
SFAC Li O  S  Fe 
Li     1  0.2796210000000  0.0649450000000 -0.3657770000000 1.0  -0.04
Li     1  0.2796210000000  0.0649450000000  0.3657770000000 1.0  -0.04
Li     1 -0.2195790000000 -0.0678230000000 -0.1398290000000 1.0   0.01
Li     1 -0.2195790000000 -0.0678230000000  0.1398290000000 1.0   0.01
Li     1  0.2804830000000  0.4352510000000  0.1422630000000 1.0   0.01
Li     1  0.2804830000000  0.4352510000000 -0.1422630000000 1.0   0.01
O      2  0.2936720000000 -0.2137850000000  0.5000000000000 1.0   0.12
S      3 -0.2036050000000  0.3632090000000  0.2805890000000 1.0   0.04
S      3 -0.2036050000000  0.3632090000000 -0.2805890000000 1.0   0.04
S      3  0.2941840000000 -0.1010400000000  0.0000000000000 1.0   0.00
Fe     4 -0.2179090000000 -0.3576340000000  0.5000000000000 1.0   3.85
END
