TITL LFSO-Li4Fe3S3O2-201029-003703-569c33 0.0402 192.081661 -5.17347403E+003 12.0000 12.1203 12 (P-1) n - 1
REM
REM Run started: Thu, 29 Oct 2020 03:47:33 +0000 in /lustre/scratch/uccabz1/launch_tmp/launcher_2020-10-29-00-37-01-388862
REM CASTEP 20.1 from code version af48c487+ pr-geom-scf-spinfix Tue Jun 2 15:39:59 2020 +0100
REM Functional Perdew Burke Ernzerhof Relativity Koelling-Harmon Dispersion off
REM Cut-off 340.0000 eV Grid scale 1.7500 Gmax 16.5316 1/A FBSC none
REM MP grid 4 4 2 Offset 0.000 0.000 0.000 No. kpts 16 Spacing 0.07
REM Total runtime: 12084.3 s
REM Overall efficiency: 94.875 %
REM
REM
REM
REM compiler GCC version 4.9.2
REM options -cpp -iprefix /lustre/shared/ucl/apps/gcc/4.9.2/bin/../lib/gcc/x86_64-unknown-linux-gnu/4.9.2/ -mtune=corei7 -march=x86-64 -g -Og
REM COMMAND_LINE
REM seed 525976823 1978747496 767124099 1577936871 2037410408 -1990524050 2012839571 -903184707 369448841 -817870083 -1991413872 -1049314524
REM
REM S 3|1.8|5|6|7|30:31:32(qc=5)
REM O 2|1.5|12|13|15|20:21(qc=5)
REM Li 1|1.3|8|9|10|10U:20(qc=5)
REM Fe 3|2.2|2.0|1.0|8|9|10|40:41:32(qc=5)
REM Fe d:4.0 
REM
CELL 1.54180    3.62699    3.92731   13.87064  102.26891   84.21977   90.95487
LATT -1
SFAC Li O  S  Fe 
Li     1  0.3220040000000  0.2971070000000 -0.4275720000000 1.0   0.03
Li     1 -0.3220040000000 -0.2971070000000  0.4275720000000 1.0   0.03
Li     1 -0.0263950000000 -0.4026550000000  0.1376450000000 1.0  -0.11
Li     1  0.0263950000000  0.4026550000000 -0.1376450000000 1.0  -0.11
O      2 -0.0531790000000  0.1166890000000  0.1560940000000 1.0   0.13
O      2  0.0531790000000 -0.1166890000000 -0.1560940000000 1.0   0.13
S      3 -0.2701280000000 -0.1551570000000 -0.3873950000000 1.0   0.15
S      3  0.2701280000000  0.1551570000000  0.3873950000000 1.0   0.15
S      3 -0.5000000000000  0.5000000000000  0.0000000000000 1.0   0.10
Fe     4 -0.4251640000000 -0.1450310000000 -0.2268230000000 1.0   3.80
Fe     4  0.4251640000000  0.1450310000000  0.2268230000000 1.0   3.80
Fe     4  0.0000000000000  0.0000000000000  0.0000000000000 1.0   3.90
END
