TITL LFSO-Li2Fe3S3O-201026-042737-92f964 0.0858 722.034322 -8.66895342E+003 24.0000 24.4602 18 (Cm) n - 1
REM
REM Run started: Mon, 26 Oct 2020 16:34:24 +0000 in /scratch/scratch/uccabz1/launch_tmp/launcher_2020-10-26-04-27-36-335420
REM CASTEP 19.11| from code version Version unavailable
REM Functional Perdew Burke Ernzerhof Relativity Koelling-Harmon Dispersion off
REM Cut-off 340.0000 eV Grid scale 1.7500 Gmax 16.5316 1/A FBSC none
REM MP grid 3 2 2 Offset 0.000 0.000 0.000 No. kpts 5 Spacing 0.07
REM Total runtime: 47898.1 s
REM Overall efficiency: 80.4167 %
REM
REM
REM
REM compiler GCC version 4.9.2
REM options -cpp -iprefix /scratch/UCL/applications/gcc/4.9.2/bin/../lib/gcc/x86_64-unknown-linux-gnu/4.9.2/ -mtune=corei7 -march=x86-64 -g -O2
REM COMMAND_LINE
REM seed -2139649519 365200527 1344676709 317246832 -122128372 -2047889061 -2120289944 1964483464 -1020588880 -1743126730 1443368308 765468589
REM
REM S 3|1.8|5|6|7|30:31:32(qc=5)
REM O 2|1.5|12|13|15|20:21(qc=5)
REM Li 1|1.3|8|9|10|10U:20(qc=5)
REM Fe 3|2.2|2.0|1.0|8|9|10|40:41:32(qc=5)
REM Fe d:4.0 
REM
CELL 1.54180    6.20610   10.10601   12.13402   88.61883   85.49762   72.11850
LATT -1
SFAC Li O  S  Fe 
Li     1  0.4537120000000  0.3977380000000 -0.3819860000000 1.0  -0.02
Li     1 -0.1485500000000 -0.3977380000000 -0.3819860000000 1.0  -0.02
Li     1 -0.0532740000000 -0.2762890000000  0.2237000000000 1.0  -0.03
Li     1 -0.3295630000000  0.2762890000000  0.2237000000000 1.0  -0.03
O      2 -0.1185010000000 -0.4561980000000 -0.2426270000000 1.0   0.14
O      2  0.4253010000000  0.4561980000000 -0.2426270000000 1.0   0.14
S      3 -0.3679560000000  0.3612930000000  0.4313800000000 1.0   0.10
S      3 -0.0066640000000 -0.3612930000000  0.4313800000000 1.0   0.10
S      3  0.1495120000000 -0.3624730000000  0.0164520000000 1.0   0.10
S      3 -0.2129600000000  0.3624730000000  0.0164520000000 1.0   0.10
S      3  0.2809580000000  0.2880700000000  0.2182990000000 1.0   0.15
S      3 -0.4309710000000 -0.2880700000000  0.2182990000000 1.0   0.15
Fe     4  0.2693200000000  0.4367210000000  0.3637770000000 1.0   3.85
Fe     4 -0.2939590000000 -0.4367210000000  0.3637770000000 1.0   3.85
Fe     4  0.0977960000000  0.4242290000000  0.0767380000000 1.0   3.82
Fe     4 -0.4779750000000 -0.4242290000000  0.0767380000000 1.0   3.82
Fe     4  0.1347620000000 -0.4295580000000 -0.1760230000000 1.0   3.90
Fe     4 -0.2947960000000  0.4295580000000 -0.1760230000000 1.0   3.90
END
