TITL LFSO-Li5FeS2O2-201026-192202-fe9fe0 -0.0372 145.690113 -3.34434758E+003 3.50670 3.77646 10 (I-4) n - 1
REM
REM Run started: Mon, 26 Oct 2020 19:48:40 +0000 in /lustre/scratch/uccabz1/launch_tmp/launcher_2020-10-26-19-22-00-905940
REM CASTEP 20.1 from code version af48c487+ pr-geom-scf-spinfix Tue Jun 2 15:39:59 2020 +0100
REM Functional Perdew Burke Ernzerhof Relativity Koelling-Harmon Dispersion off
REM Cut-off 340.0000 eV Grid scale 1.7500 Gmax 16.5316 1/A FBSC none
REM MP grid 4 4 4 Offset 0.000 0.000 0.000 No. kpts 20 Spacing 0.07
REM Total runtime: 2120.92 s
REM Overall efficiency: 82.2 %
REM
REM
REM
REM compiler GCC version 4.9.2
REM options -cpp -iprefix /lustre/shared/ucl/apps/gcc/4.9.2/bin/../lib/gcc/x86_64-unknown-linux-gnu/4.9.2/ -mtune=corei7 -march=x86-64 -g -Og
REM COMMAND_LINE
REM seed -1065702940 637137260 31252616 515180028 1012941003 240696306 713389312 379521707 1107263892 869020834 -690156031 -1849704611
REM
REM S 3|1.8|5|6|7|30:31:32(qc=5)
REM O 2|1.5|12|13|15|20:21(qc=5)
REM Li 1|1.3|8|9|10|10U:20(qc=5)
REM Fe 3|2.2|2.0|1.0|8|9|10|40:41:32(qc=5)
REM Fe d:4.0 
REM
CELL 1.54180    5.76536    5.76536    5.98589  118.78859  118.78859   90.00000
LATT -1
SFAC Li O  S  Fe 
Li     1 -0.5161270000000 -0.4484310000000 -0.3261680000000 1.0  -0.02
Li     1  0.1899590000000  0.1222620000000 -0.3261680000000 1.0  -0.02
Li     1  0.4484310000000 -0.1899590000000  0.3261680000000 1.0  -0.02
Li     1 -0.1222620000000  0.5161270000000  0.3261680000000 1.0  -0.02
Li     1 -0.2500000000000  0.2500000000000 -0.5000000000000 1.0  -0.01
O      2 -0.2112220000000 -0.2112220000000 -0.4224450000000 1.0   0.04
O      2  0.2112220000000  0.2112220000000  0.4224450000000 1.0   0.04
S      3  0.0019350000000 -0.4980650000000  0.0038710000000 1.0  -0.00
S      3  0.4980650000000 -0.0019350000000 -0.0038710000000 1.0  -0.00
Fe     4 -0.0000000000000 -0.0000000000000  0.0000000000000 1.0   3.50
END
