TITL LFSO-Li6FeS3O-201027-184553-4fd1cc 0.0389 360.549370 -6.82292995E+003 8.00000 8.24620 22 (P3) n - 1
REM
REM Run started: Wed, 28 Oct 2020 03:13:24 +0000 in /scratch/scratch/uccabz1/launch_tmp/launcher_2020-10-27-18-45-52-197771
REM CASTEP 19.11| from code version Version unavailable
REM Functional Perdew Burke Ernzerhof Relativity Koelling-Harmon Dispersion off
REM Cut-off 340.0000 eV Grid scale 1.7500 Gmax 16.5316 1/A FBSC none
REM MP grid 3 2 2 Offset 0.000 0.000 0.000 No. kpts 6 Spacing 0.07
REM Total runtime: 32898 s
REM Overall efficiency: 96.0833 %
REM
REM
REM
REM compiler GCC version 4.9.2
REM options -cpp -iprefix /scratch/UCL/applications/gcc/4.9.2/bin/../lib/gcc/x86_64-unknown-linux-gnu/4.9.2/ -mtune=corei7 -march=x86-64 -g -O2
REM COMMAND_LINE
REM seed -937602918 1007159040 328454824 -256884665 -123903066 1810625408 -993464885 -519905165 683564141 -601719355 -501335874 -882668960
REM
REM S 3|1.8|5|6|7|30:31:32(qc=5)
REM O 2|1.5|12|13|15|20:21(qc=5)
REM Li 1|1.3|8|9|10|10U:20(qc=5)
REM Fe 3|2.2|2.0|1.0|8|9|10|40:41:32(qc=5)
REM Fe d:4.0 
REM
CELL 1.54180    4.33161    9.80375    9.80375  120.00000   90.00000   90.00000
LATT -1
SFAC Li O  S  Fe 
Li     1  0.6819780000000  0.4376060000000  0.4580510000000 1.0  -0.04
Li     1  0.6819780000000 -0.4580510000000 -0.0204450000000 1.0  -0.04
Li     1  0.6819780000000  0.0204450000000 -0.4376060000000 1.0  -0.04
Li     1  0.3369000000000 -0.0624700000000 -0.2054510000000 1.0   0.02
Li     1  0.3369000000000  0.2054510000000  0.1429800000000 1.0   0.02
Li     1  0.3369000000000 -0.1429800000000  0.0624700000000 1.0   0.02
Li     1  0.1942680000000 -0.1314500000000  0.3674790000000 1.0  -0.04
Li     1  0.1942680000000 -0.3674790000000 -0.4989290000000 1.0  -0.04
Li     1  0.1942680000000  0.4989290000000  0.1314500000000 1.0  -0.04
Li     1 -0.0666500000000  0.0670980000000  0.2066960000000 1.0   0.02
Li     1 -0.0666500000000 -0.2066960000000 -0.1395980000000 1.0   0.02
Li     1 -0.0666500000000  0.1395980000000 -0.0670980000000 1.0   0.02
O      2  0.1960750000000 -0.3333330000000  0.3333330000000 1.0   0.17
O      2  0.1400180000000  0.0000000000000 -0.0000000000000 1.0   0.01
S      3 -0.3037250000000 -0.1174710000000  0.2603510000000 1.0   0.06
S      3 -0.3037250000000 -0.2603510000000 -0.3778210000000 1.0   0.06
S      3 -0.3037250000000  0.3778210000000  0.1174710000000 1.0   0.06
S      3  0.1830890000000 -0.4220240000000 -0.1003710000000 1.0   0.06
S      3  0.1830890000000  0.1003710000000 -0.3216530000000 1.0   0.06
S      3  0.1830890000000  0.3216530000000  0.4220240000000 1.0   0.06
Fe     4  0.1865210000000  0.3333330000000 -0.3333330000000 1.0   3.81
Fe     4 -0.2857240000000 -0.3333330000000  0.3333330000000 1.0   3.76
END
