TITL LFSO-Li4Fe3S4O-201029-024039-fa53be 0.0167 546.867641 -1.00796906E+004 24.0000 24.3899 24 (P2) n - 1
REM
REM Run started: Thu, 29 Oct 2020 14:15:18 +0000 in /lustre/scratch/uccabz1/launch_tmp/launcher_2020-10-29-02-40-37-965918
REM CASTEP 20.1 from code version af48c487+ pr-geom-scf-spinfix Tue Jun 2 15:39:59 2020 +0100
REM Functional Perdew Burke Ernzerhof Relativity Koelling-Harmon Dispersion off
REM Cut-off 340.0000 eV Grid scale 1.7500 Gmax 16.5316 1/A FBSC none
REM MP grid 3 3 2 Offset 0.000 0.000 0.000 No. kpts 6 Spacing 0.07
REM Total runtime: 46516.1 s
REM Overall efficiency: 72.4167 %
REM
REM
REM
REM compiler GCC version 4.9.2
REM options -cpp -iprefix /lustre/shared/ucl/apps/gcc/4.9.2/bin/../lib/gcc/x86_64-unknown-linux-gnu/4.9.2/ -mtune=corei7 -march=x86-64 -g -Og
REM COMMAND_LINE
REM seed 7281331 -2113204226 -1971808693 1062758072 376310635 1962201615 -6369750 612411806 521509899 -1223040881 1131572474 1329593479
REM
REM S 3|1.8|5|6|7|30:31:32(qc=5)
REM O 2|1.5|12|13|15|20:21(qc=5)
REM Li 1|1.3|8|9|10|10U:20(qc=5)
REM Fe 3|2.2|2.0|1.0|8|9|10|40:41:32(qc=5)
REM Fe d:4.0 
REM
CELL 1.54180    6.46248   11.43319   12.39559  143.33739   90.00000   90.00000
LATT -1
SFAC Li O  S  Fe 
Li     1  0.5420750000000  0.2850680000000  0.4837450000000 1.0   0.00
Li     1  0.5420750000000 -0.2850680000000 -0.4837450000000 1.0   0.00
Li     1 -0.2348400000000  0.0682900000000 -0.1309920000000 1.0  -0.03
Li     1 -0.2348400000000 -0.0682900000000  0.1309920000000 1.0  -0.03
Li     1  0.3480000000000  0.2613300000000 -0.2628220000000 1.0  -0.04
Li     1  0.3480000000000 -0.2613300000000  0.2628220000000 1.0  -0.04
Li     1 -0.0705420000000 -0.3779760000000 -0.2981530000000 1.0  -0.03
Li     1 -0.0705420000000  0.3779760000000  0.2981530000000 1.0  -0.03
O      2 -0.0606120000000  0.2761570000000  0.0690870000000 1.0   0.18
O      2 -0.0606120000000 -0.2761570000000 -0.0690870000000 1.0   0.18
S      3  0.3863090000000  0.0251710000000 -0.2890680000000 1.0   0.10
S      3  0.3863090000000 -0.0251710000000  0.2890680000000 1.0   0.10
S      3 -0.1118470000000 -0.2592010000000 -0.4019610000000 1.0   0.07
S      3 -0.1118470000000  0.2592010000000  0.4019610000000 1.0   0.07
S      3 -0.0265340000000  0.2417130000000 -0.2805760000000 1.0   0.11
S      3 -0.0265340000000 -0.2417130000000  0.2805760000000 1.0   0.11
S      3  0.4557690000000  0.4931250000000  0.2121610000000 1.0   0.12
S      3  0.4557690000000 -0.4931250000000 -0.2121610000000 1.0   0.12
Fe     4 -0.2001550000000 -0.4921710000000 -0.1549200000000 1.0   3.81
Fe     4 -0.2001550000000  0.4921710000000  0.1549200000000 1.0   3.81
Fe     4  0.0461630000000 -0.0957350000000 -0.4350540000000 1.0   3.87
Fe     4  0.0461630000000  0.0957350000000  0.4350540000000 1.0   3.87
Fe     4  0.2158790000000  0.2419890000000 -0.0123370000000 1.0   3.83
Fe     4  0.2158790000000 -0.2419890000000  0.0123370000000 1.0   3.83
END
