TITL LFSO-Li4Fe3S4O-201028-235530-47ae86 0.0047 220.762058 -5.03785065E+003 11.0462 11.3106 12 (P2) n - 1
REM
REM Run started: Thu, 29 Oct 2020 04:57:38 +0000 in /lustre/scratch/uccabz1/launch_tmp/launcher_2020-10-28-23-55-28-639441
REM CASTEP 20.1 from code version af48c487+ pr-geom-scf-spinfix Tue Jun 2 15:39:59 2020 +0100
REM Functional Perdew Burke Ernzerhof Relativity Koelling-Harmon Dispersion off
REM Cut-off 340.0000 eV Grid scale 1.7500 Gmax 16.5316 1/A FBSC none
REM MP grid 5 3 2 Offset 0.000 0.000 0.000 No. kpts 9 Spacing 0.07
REM Total runtime: 20120.1 s
REM Overall efficiency: 74.5 %
REM
REM
REM
REM compiler GCC version 4.9.2
REM options -cpp -iprefix /lustre/shared/ucl/apps/gcc/4.9.2/bin/../lib/gcc/x86_64-unknown-linux-gnu/4.9.2/ -mtune=corei7 -march=x86-64 -g -Og
REM COMMAND_LINE
REM seed -595937594 -61729082 -1655945811 -2140139308 -129694992 1412126626 -704466281 358297361 1820371107 1379582935 1346338331 1648329460
REM
REM S 3|1.8|5|6|7|30:31:32(qc=5)
REM O 2|1.5|12|13|15|20:21(qc=5)
REM Li 1|1.3|8|9|10|10U:20(qc=5)
REM Fe 3|2.2|2.0|1.0|8|9|10|40:41:32(qc=5)
REM Fe d:4.0 
REM
CELL 1.54180    3.29221    7.21942   13.02465  134.50997   90.00000   90.00000
LATT -1
SFAC Li O  S  Fe 
Li     1 -0.4187260000000  0.2626090000000 -0.3977940000000 1.0  -0.00
Li     1 -0.4187260000000 -0.2626090000000  0.3977940000000 1.0  -0.00
Li     1  0.3537980000000 -0.1663790000000 -0.2731540000000 1.0  -0.03
Li     1  0.3537980000000  0.1663790000000  0.2731540000000 1.0  -0.03
O      2  0.1144080000000  0.5000000000000  0.0000000000000 1.0   0.19
S      3  0.0455840000000 -0.4031320000000 -0.2175200000000 1.0   0.01
S      3  0.0455840000000  0.4031320000000  0.2175200000000 1.0   0.01
S      3 -0.2749850000000  0.0191410000000  0.3541640000000 1.0   0.02
S      3 -0.2749850000000 -0.0191410000000 -0.3541640000000 1.0   0.02
Fe     4 -0.4150370000000 -0.5654030000000 -0.1291470000000 1.0   3.82
Fe     4 -0.4150370000000  0.5654030000000  0.1291470000000 1.0   3.82
Fe     4 -0.0801370000000  0.0000000000000  0.0000000000000 1.0   3.23
END
