TITL LFSO-Li4Fe3S3O2-201029-092256-e306be -0.0517 585.139151 -1.03435442E+004 21.8427 22.5996 24 (Pba2) n - 1
REM
REM Run started: Thu, 29 Oct 2020 15:27:34 +0000 in /lustre/scratch/uccabz1/launch_tmp/launcher_2020-10-29-09-22-55-249105
REM CASTEP 20.1 from code version af48c487+ pr-geom-scf-spinfix Tue Jun 2 15:39:59 2020 +0100
REM Functional Perdew Burke Ernzerhof Relativity Koelling-Harmon Dispersion off
REM Cut-off 340.0000 eV Grid scale 1.7500 Gmax 16.5316 1/A FBSC none
REM MP grid 4 2 1 Offset 0.000 0.000 0.000 No. kpts 2 Spacing 0.07
REM Total runtime: 23397.7 s
REM Overall efficiency: 76.8333 %
REM
REM
REM
REM compiler GCC version 4.9.2
REM options -cpp -iprefix /lustre/shared/ucl/apps/gcc/4.9.2/bin/../lib/gcc/x86_64-unknown-linux-gnu/4.9.2/ -mtune=corei7 -march=x86-64 -g -Og
REM COMMAND_LINE
REM seed 1212747647 -108700556 1243819003 896132611 1179722454 -845551823 -1714432237 588866059 1856356493 464663098 -1764331515 -1129146204
REM
REM S 3|1.8|5|6|7|30:31:32(qc=5)
REM O 2|1.5|12|13|15|20:21(qc=5)
REM Li 1|1.3|8|9|10|10U:20(qc=5)
REM Fe 3|2.2|2.0|1.0|8|9|10|40:41:32(qc=5)
REM Fe d:4.0 
REM
CELL 1.54180    4.70437    7.70213   16.14903   90.00000   90.00000   90.00000
LATT -1
SFAC Li O  S  Fe 
Li     1 -0.2968340000000  0.4103020000000 -0.3305900000000 1.0  -0.07
Li     1 -0.2968340000000 -0.4103020000000  0.3305900000000 1.0  -0.07
Li     1 -0.2968340000000  0.0896980000000  0.1694100000000 1.0  -0.07
Li     1 -0.2968340000000 -0.0896980000000 -0.1694100000000 1.0  -0.07
Li     1  0.0405680000000  0.3490960000000 -0.1899390000000 1.0  -0.06
Li     1  0.0405680000000 -0.3490960000000  0.1899390000000 1.0  -0.06
Li     1  0.0405680000000  0.1509040000000  0.3100610000000 1.0  -0.06
Li     1  0.0405680000000 -0.1509040000000 -0.3100610000000 1.0  -0.06
O      2  0.3795750000000  0.1213140000000  0.2459740000000 1.0   0.12
O      2  0.3795750000000 -0.1213140000000 -0.2459740000000 1.0   0.12
O      2  0.3795750000000  0.3786860000000 -0.2540260000000 1.0   0.12
O      2  0.3795750000000 -0.3786860000000  0.2540260000000 1.0   0.12
S      3 -0.1214860000000  0.1293760000000 -0.2846250000000 1.0   0.05
S      3 -0.1214860000000 -0.1293760000000  0.2846250000000 1.0   0.05
S      3 -0.1214860000000  0.3706240000000  0.2153750000000 1.0   0.05
S      3 -0.1214860000000 -0.3706240000000 -0.2153750000000 1.0   0.05
S      3 -0.2755000000000  0.0000000000000 -0.0000000000000 1.0  -0.01
S      3 -0.2755000000000  0.5000000000000 -0.5000000000000 1.0  -0.01
Fe     4  0.3774220000000  0.1273880000000 -0.2681170000000 1.0   3.66
Fe     4  0.3774220000000 -0.1273880000000  0.2681170000000 1.0   3.66
Fe     4  0.3774220000000  0.3726120000000  0.2318830000000 1.0   3.66
Fe     4  0.3774220000000 -0.3726120000000 -0.2318830000000 1.0   3.66
Fe     4  0.2220310000000  0.0000000000000 -0.0000000000000 1.0   3.52
Fe     4  0.2220310000000  0.5000000000000 -0.5000000000000 1.0   3.52
END
