TITL LFSO-Li2Fe3S2O2-201024-104100-2e8e19 0.3535 542.539320 -8.93367647E+003 -22.3347 23.1159 18 (P2221) n - 1
REM
REM Run started: Sat, 24 Oct 2020 23:44:52 +0100 in /lustre/scratch/uccabz1/launch_tmp/launcher_2020-10-24-16-57-58-542972
REM CASTEP 20.1 from code version af48c487+ pr-geom-scf-spinfix Tue Jun 2 15:39:59 2020 +0100
REM Functional Perdew Burke Ernzerhof Relativity Koelling-Harmon Dispersion off
REM Cut-off 340.0000 eV Grid scale 1.7500 Gmax 16.5316 1/A FBSC none
REM MP grid 5 2 1 Offset 0.000 0.000 0.000 No. kpts 3 Spacing 0.07
REM Total runtime: 43681.5 s
REM Overall efficiency: 78.3636 %
REM
REM
REM
REM compiler GCC version 4.9.2
REM options -cpp -iprefix /lustre/shared/ucl/apps/gcc/4.9.2/bin/../lib/gcc/x86_64-unknown-linux-gnu/4.9.2/ -mtune=corei7 -march=x86-64 -g -Og
REM COMMAND_LINE
REM seed 778902106 2070077457 -1920140804 -2054857067 -932346826 990708699 1439565246 1188174831 -1463209160 -1144481050 -1613101051 1291092507
REM
REM S 3|1.8|5|6|7|30:31:32(qc=5)
REM O 2|1.5|12|13|15|20:21(qc=5)
REM Li 1|1.3|8|9|10|10U:20(qc=5)
REM Fe 3|2.2|2.0|1.0|8|9|10|40:41:32(qc=5)
REM Fe d:4.0 
REM
CELL 1.54180    3.29362    9.74268   16.90750   90.00000   90.00000   90.00000
LATT -1
SFAC Li O  S  Fe 
Li     1 -0.4152440000000  0.1877460000000  0.0921240000000 1.0   0.03
Li     1  0.0847560000000 -0.1877460000000 -0.0921240000000 1.0   0.03
Li     1 -0.0847560000000 -0.1877460000000  0.0921240000000 1.0   0.03
Li     1  0.4152440000000  0.1877460000000 -0.0921240000000 1.0   0.03
O      2  0.5994400000000  0.2129660000000 -0.1867960000000 1.0  -0.17
O      2  0.0994400000000 -0.2129660000000  0.1867960000000 1.0  -0.17
O      2 -0.0994400000000 -0.2129660000000 -0.1867960000000 1.0  -0.17
O      2 -0.5994400000000  0.2129660000000  0.1867960000000 1.0  -0.17
S      3 -0.2447690000000  0.1702880000000  0.3816660000000 1.0   0.04
S      3 -0.7447690000000 -0.1702880000000 -0.3816660000000 1.0   0.04
S      3  0.7447690000000 -0.1702880000000  0.3816660000000 1.0   0.04
S      3  0.2447690000000  0.1702880000000 -0.3816660000000 1.0   0.04
Fe     4 -0.0912790000000  0.2031200000000  0.2461360000000 1.0  -3.78
Fe     4  0.4087210000000 -0.2031200000000 -0.2461360000000 1.0  -3.78
Fe     4 -0.4087210000000 -0.2031200000000  0.2461360000000 1.0  -3.78
Fe     4  0.0912790000000  0.2031200000000 -0.2461360000000 1.0  -3.78
Fe     4 -0.2500000000000  0.0000000000000 -0.3833890000000 1.0  -3.41
Fe     4  0.2500000000000  0.0000000000000  0.3833890000000 1.0  -3.41
END
