TITL LFSO-LiFe3S4O-201028-174448-a14af7 -0.0226 379.459962 -8.87580152E+003 -24.9841 25.2110 18 (C2/m) n - 1
REM
REM Run started: Fri, 30 Oct 2020 00:48:00 +0000 in /lustre/scratch/uccabz1/launch_tmp/launcher_2020-10-28-17-44-45-916646
REM CASTEP 20.1 from code version af48c487+ pr-geom-scf-spinfix Tue Jun 2 15:39:59 2020 +0100
REM Functional Perdew Burke Ernzerhof Relativity Koelling-Harmon Dispersion off
REM Cut-off 340.0000 eV Grid scale 1.7500 Gmax 16.5316 1/A FBSC none
REM MP grid 4 4 2 Offset 0.000 0.000 0.000 No. kpts 10 Spacing 0.07
REM Total runtime: 119045 s
REM Overall efficiency: 79.5556 %
REM
REM
REM
REM compiler GCC version 4.9.2
REM options -cpp -iprefix /lustre/shared/ucl/apps/gcc/4.9.2/bin/../lib/gcc/x86_64-unknown-linux-gnu/4.9.2/ -mtune=corei7 -march=x86-64 -g -Og
REM COMMAND_LINE
REM seed 967995233 -1870234933 -805136248 995535393 223378852 1403726815 -1169615709 -628249706 -1117421781 -829497841 -388119057 1807983501
REM
REM S 3|1.8|5|6|7|30:31:32(qc=5)
REM O 2|1.5|12|13|15|20:21(qc=5)
REM Li 1|1.3|8|9|10|10U:20(qc=5)
REM Fe 3|2.2|2.0|1.0|8|9|10|40:41:32(qc=5)
REM Fe d:4.0 
REM
CELL 1.54180    8.99910    8.99910    9.12624   93.49382   93.49382  148.22154
LATT -1
SFAC Li O  S  Fe 
Li     1 -0.6874380000000 -0.6874380000000  0.1729400000000 1.0   0.04
Li     1  0.6874380000000  0.6874380000000 -0.1729400000000 1.0   0.04
O      2  0.3305260000000  0.3305260000000  0.3662920000000 1.0  -0.45
O      2 -0.3305260000000 -0.3305260000000 -0.3662920000000 1.0  -0.45
S      3  0.3454610000000  0.0184980000000 -0.4164030000000 1.0  -0.17
S      3 -0.0184980000000 -0.3454610000000  0.4164030000000 1.0  -0.17
S      3 -0.3454610000000 -0.0184980000000  0.4164030000000 1.0  -0.17
S      3  0.0184980000000  0.3454610000000 -0.4164030000000 1.0  -0.17
S      3  0.1482980000000  0.4558630000000  0.1261870000000 1.0  -0.12
S      3 -0.4558630000000 -0.1482980000000 -0.1261870000000 1.0  -0.12
S      3 -0.1482980000000 -0.4558630000000 -0.1261870000000 1.0  -0.12
S      3  0.4558630000000  0.1482980000000  0.1261870000000 1.0  -0.12
Fe     4  0.3558640000000  0.0028880000000 -0.1439600000000 1.0  -3.79
Fe     4 -0.0028880000000 -0.3558640000000  0.1439600000000 1.0  -3.79
Fe     4 -0.3558640000000 -0.0028880000000  0.1439600000000 1.0  -3.79
Fe     4  0.0028880000000  0.3558640000000 -0.1439600000000 1.0  -3.79
Fe     4 -0.4203400000000  0.4203400000000 -0.5000000000000 1.0  -3.93
Fe     4  0.4203400000000 -0.4203400000000  0.5000000000000 1.0  -3.93
END
