TITL LFSO-Li6FeSO3-201028-043433-4204b1 0.0366 367.193514 -7.35498473E+003 8.00000 8.42320 22 (R3) n - 1
REM
REM Run started: Wed, 28 Oct 2020 10:52:10 +0000 in /lustre/scratch/uccabz1/launch_tmp/launcher_2020-10-28-04-34-31-770248
REM CASTEP 20.1 from code version af48c487+ pr-geom-scf-spinfix Tue Jun 2 15:39:59 2020 +0100
REM Functional Perdew Burke Ernzerhof Relativity Koelling-Harmon Dispersion off
REM Cut-off 340.0000 eV Grid scale 1.7500 Gmax 16.5316 1/A FBSC none
REM MP grid 3 3 3 Offset 0.000 0.000 0.000 No. kpts 6 Spacing 0.07
REM Total runtime: 26035.9 s
REM Overall efficiency: 97.3333 %
REM
REM
REM
REM compiler GCC version 4.9.2
REM options -cpp -iprefix /lustre/shared/ucl/apps/gcc/4.9.2/bin/../lib/gcc/x86_64-unknown-linux-gnu/4.9.2/ -mtune=corei7 -march=x86-64 -g -Og
REM COMMAND_LINE
REM seed 1632519587 261003453 -603154237 -688032740 -741434573 -922733756 -2079741025 2136048945 -1578045053 1879315730 1209771147 -1043162765
REM
REM S 3|1.8|5|6|7|30:31:32(qc=5)
REM O 2|1.5|12|13|15|20:21(qc=5)
REM Li 1|1.3|8|9|10|10U:20(qc=5)
REM Fe 3|2.2|2.0|1.0|8|9|10|40:41:32(qc=5)
REM Fe d:4.0 
REM
CELL 1.54180    8.54198    8.54198    7.62161   55.91799   55.91799   60.00000
LATT -1
SFAC Li O  S  Fe 
Li     1 -0.2374070000000 -0.2584920000000  0.4469500000000 1.0  -0.03
Li     1  0.0489500000000 -0.2374070000000  0.4469500000000 1.0  -0.03
Li     1 -0.2584920000000  0.0489500000000  0.4469500000000 1.0  -0.03
Li     1  0.2798560000000  0.5950040000000  0.1987550000000 1.0  -0.01
Li     1 -0.0736150000000  0.2798560000000  0.1987550000000 1.0  -0.01
Li     1  0.5950040000000 -0.0736150000000  0.1987550000000 1.0  -0.01
Li     1 -0.0566480000000  0.4308140000000 -0.3009040000000 1.0  -0.00
Li     1 -0.0732610000000 -0.0566480000000 -0.3009040000000 1.0  -0.00
Li     1  0.4308140000000 -0.0732610000000 -0.3009040000000 1.0  -0.00
Li     1 -0.3862150000000 -0.7590270000000  0.1532880000000 1.0  -0.02
Li     1 -0.0080460000000 -0.3862150000000  0.1532880000000 1.0  -0.02
Li     1 -0.7590270000000 -0.0080460000000  0.1532880000000 1.0  -0.02
O      2 -0.2105490000000  0.3979110000000  0.0012130000000 1.0   0.10
O      2 -0.1885760000000 -0.2105490000000  0.0012130000000 1.0   0.10
O      2  0.3979110000000 -0.1885760000000  0.0012130000000 1.0   0.10
O      2 -0.0139060000000  0.0131860000000  0.3971410000000 1.0   0.01
O      2 -0.3964220000000 -0.0139060000000  0.3971410000000 1.0   0.01
O      2  0.0131860000000 -0.3964220000000  0.3971410000000 1.0   0.01
S      3  0.5115710000000  0.5115710000000 -0.5347140000000 1.0   0.18
S      3  0.2677050000000  0.2677050000000  0.1968860000000 1.0   0.14
Fe     4 -0.3308630000000 -0.3308630000000 -0.0074100000000 1.0   3.79
Fe     4  0.3902920000000  0.3902920000000 -0.1708760000000 1.0   3.74
END
