TITL LFSO-Li2Fe4S4O-201023-054435-e05279 0.2223 660.805368 -1.09960523E+004 30.0028 31.1480 22 (Imm2) n - 1
REM
REM Run started: Sun, 25 Oct 2020 03:04:11 +0000 in /lustre/scratch/uccabz1/launch_tmp/launcher_2020-10-24-23-21-47-784622
REM CASTEP 20.1 from code version af48c487+ pr-geom-scf-spinfix Tue Jun 2 15:39:59 2020 +0100
REM Functional Perdew Burke Ernzerhof Relativity Koelling-Harmon Dispersion off
REM Cut-off 340.0000 eV Grid scale 1.7500 Gmax 16.5316 1/A FBSC none
REM MP grid 2 3 3 Offset 0.000 0.000 0.000 No. kpts 6 Spacing 0.07
REM Total runtime: 150601 s
REM Overall efficiency: 98.7 %
REM
REM
REM
REM compiler GCC version 4.9.2
REM options -cpp -iprefix /lustre/shared/ucl/apps/gcc/4.9.2/bin/../lib/gcc/x86_64-unknown-linux-gnu/4.9.2/ -mtune=corei7 -march=x86-64 -g -Og
REM COMMAND_LINE
REM seed 2120562939 562020501 -1582077643 1659384563 1224305004 1145216748 1870971002 -1101248847 -560736195 -1699292975 -507656166 1670861354
REM
REM S 3|1.8|5|6|7|30:31:32(qc=5)
REM O 2|1.5|12|13|15|20:21(qc=5)
REM Li 1|1.3|8|9|10|10U:20(qc=5)
REM Fe 3|2.2|2.0|1.0|8|9|10|40:41:32(qc=5)
REM Fe d:4.0 
REM
CELL 1.54180   10.46452   11.05143   11.05143   36.61957   61.74171   61.74171
LATT -1
SFAC Li O  S  Fe 
Li     1 -0.5488200000000  0.4482890000000 -0.0853150000000 1.0  -0.02
Li     1  0.5488190000000  0.0853150000000 -0.4482890000000 1.0  -0.02
Li     1  0.1858460000000  0.4482890000000 -0.0853150000000 1.0  -0.02
Li     1 -0.1858470000000  0.0853150000000 -0.4482890000000 1.0  -0.02
O      2  0.2441320000000 -0.5454500000000  0.0571850000000 1.0   0.15
O      2 -0.2441330000000 -0.0571850000000  0.5454500000000 1.0   0.15
S      3  0.4558460000000 -0.2460750000000 -0.1349290000000 1.0   0.05
S      3 -0.4558470000000  0.1349290000000  0.2460750000000 1.0   0.05
S      3 -0.0748430000000 -0.2460750000000 -0.1349290000000 1.0   0.05
S      3  0.0748420000000  0.1349290000000  0.2460750000000 1.0   0.05
S      3 -0.1703230000000  0.3721480000000  0.4346720000000 1.0   0.05
S      3  0.1703220000000 -0.4346720000000 -0.3721480000000 1.0   0.05
S      3  0.3635020000000  0.3721480000000  0.4346720000000 1.0   0.05
S      3 -0.3635030000000 -0.4346720000000 -0.3721480000000 1.0   0.05
Fe     4  0.3479070000000 -0.5934020000000  0.2004140000000 1.0   3.73
Fe     4 -0.3479080000000 -0.2004140000000  0.5934020000000 1.0   3.73
Fe     4  0.0450790000000 -0.5934020000000  0.2004140000000 1.0   3.73
Fe     4 -0.0450800000000 -0.2004140000000  0.5934020000000 1.0   3.73
Fe     4  0.4508970000000 -0.3382870000000  0.1390520000000 1.0   3.60
Fe     4 -0.4508980000000 -0.1390520000000  0.3382870000000 1.0   3.60
Fe     4 -0.2516630000000 -0.3382870000000  0.1390520000000 1.0   3.60
Fe     4  0.2516620000000 -0.1390520000000  0.3382870000000 1.0   3.60
END
