TITL LFSO-Li4Fe3S3O2-201021-221540-639c29 0.0655 293.205694 -5.16458767E+003 10.9267 11.2964 12 (F222) n - 1
REM
REM Run started: Thu, 22 Oct 2020 02:04:26 +0100 in /lustre/scratch/uccabz1/launch_tmp/launcher_2020-10-21-23-26-08-475489
REM CASTEP 20.1 from code version af48c487+ pr-geom-scf-spinfix Tue Jun 2 15:39:59 2020 +0100
REM Functional Perdew Burke Ernzerhof Relativity Koelling-Harmon Dispersion off
REM Cut-off 340.0000 eV Grid scale 1.7500 Gmax 16.5316 1/A FBSC none
REM MP grid 3 3 2 Offset 0.000 0.000 0.000 No. kpts 6 Spacing 0.07
REM Total runtime: 8546.92 s
REM Overall efficiency: 94.5 %
REM
REM
REM
REM compiler GCC version 4.9.2
REM options -cpp -iprefix /scratch/UCL/applications/gcc/4.9.2/bin/../lib/gcc/x86_64-unknown-linux-gnu/4.9.2/ -mtune=corei7 -march=x86-64 -g -O2
REM COMMAND_LINE
REM seed -2138807270 1115002383 829973104 -628145726 -97441170 -1460583329 1127571359 1090728974 -1852217395 551857959 -1786744283 893212834
REM
REM S 3|1.8|5|6|7|30:31:32(qc=5)
REM O 2|1.5|12|13|15|20:21(qc=5)
REM Li 1|1.3|8|9|10|10U:20(qc=5)
REM Fe 3|2.2|2.0|1.0|8|9|10|40:41:32(qc=5)
REM Fe d:4.0 
REM
CELL 1.54180    5.58993    5.58993   10.33994  107.65771  107.65771   82.98305
LATT -1
SFAC Li O  S  Fe 
Li     1  0.3501620000000  0.2826960000000  0.1188440000000 1.0  -0.07
Li     1  0.1638530000000  0.2313180000000 -0.1188440000000 1.0  -0.07
Li     1 -0.2826960000000 -0.3501620000000 -0.1188440000000 1.0  -0.07
Li     1 -0.2313180000000 -0.1638530000000  0.1188440000000 1.0  -0.07
O      2 -0.0046430000000 -0.5046430000000 -0.0092850000000 1.0   0.38
O      2  0.5046430000000  0.0046430000000  0.0092850000000 1.0   0.38
S      3  0.4857430000000 -0.0142570000000 -0.5000000000000 1.0   0.05
S      3  0.0142570000000 -0.4857430000000 -0.5000000000000 1.0   0.05
S      3  0.5000000000000  0.5000000000000 -0.0000000000000 1.0   0.43
Fe     4  0.4150810000000 -0.4150810000000 -0.5000000000000 1.0   3.33
Fe     4  0.0849190000000 -0.0849190000000  0.5000000000000 1.0   3.33
Fe     4 -0.2500000000000  0.2500000000000  0.5000000000000 1.0   3.25
END
