TITL LFSO-Li2Fe4S3O2-201026-013437-036852 0.0097 477.760067 -1.12662936E+004 31.9965 32.4904 22 (I-4) n - 1
REM
REM Run started: Mon, 26 Oct 2020 12:27:07 +0000 in /lustre/scratch/uccabz1/launch_tmp/launcher_2020-10-26-01-34-36-158622
REM CASTEP 20.1 from code version af48c487+ pr-geom-scf-spinfix Tue Jun 2 15:39:59 2020 +0100
REM Functional Perdew Burke Ernzerhof Relativity Koelling-Harmon Dispersion off
REM Cut-off 340.0000 eV Grid scale 1.7500 Gmax 16.5316 1/A FBSC none
REM MP grid 3 3 2 Offset 0.000 0.000 0.000 No. kpts 6 Spacing 0.07
REM Total runtime: 41269.7 s
REM Overall efficiency: 97.125 %
REM
REM
REM
REM compiler GCC version 4.9.2
REM options -cpp -iprefix /lustre/shared/ucl/apps/gcc/4.9.2/bin/../lib/gcc/x86_64-unknown-linux-gnu/4.9.2/ -mtune=corei7 -march=x86-64 -g -Og
REM COMMAND_LINE
REM seed -947895269 1331955829 -190572671 -421091906 -406979157 903430848 1415912533 464720204 -133172830 1515600298 -495551933 -1255606557
REM
REM S 3|1.8|5|6|7|30:31:32(qc=5)
REM O 2|1.5|12|13|15|20:21(qc=5)
REM Li 1|1.3|8|9|10|10U:20(qc=5)
REM Fe 3|2.2|2.0|1.0|8|9|10|40:41:32(qc=5)
REM Fe d:4.0 
REM
CELL 1.54180    7.53109    7.53109    9.96566  112.20070  112.20070   90.00000
LATT -1
SFAC Li O  S  Fe 
Li     1  0.2900780000000 -0.5173360000000 -0.5200800000000 1.0  -0.03
Li     1  0.1898420000000 -0.0027440000000 -0.5200800000000 1.0  -0.03
Li     1  0.5173360000000 -0.1898420000000  0.5200800000000 1.0  -0.03
Li     1  0.0027440000000 -0.2900780000000  0.5200800000000 1.0  -0.03
O      2 -0.4336730000000 -0.4368830000000 -0.4655390000000 1.0   0.25
O      2 -0.0318660000000 -0.0286560000000 -0.4655390000000 1.0   0.25
O      2  0.4368830000000  0.0318660000000  0.4655390000000 1.0   0.25
O      2  0.0286560000000  0.4336730000000  0.4655390000000 1.0   0.25
S      3 -0.3221300000000 -0.1187010000000  0.1528200000000 1.0   0.13
S      3  0.4749500000000  0.2715210000000  0.1528200000000 1.0   0.13
S      3  0.1187010000000 -0.4749500000000 -0.1528200000000 1.0   0.13
S      3 -0.2715210000000  0.3221300000000 -0.1528200000000 1.0   0.13
S      3  0.1364380000000 -0.3635620000000  0.2728770000000 1.0   0.25
S      3  0.3635620000000 -0.1364380000000 -0.2728770000000 1.0   0.25
Fe     4  0.5240670000000  0.1647690000000 -0.0843620000000 1.0   3.77
Fe     4  0.3915710000000 -0.2491310000000 -0.0843620000000 1.0   3.77
Fe     4 -0.1647690000000 -0.3915710000000  0.0843620000000 1.0   3.77
Fe     4  0.2491310000000 -0.5240670000000  0.0843620000000 1.0   3.77
Fe     4 -0.1858320000000  0.2676460000000  0.3125020000000 1.0   3.75
Fe     4  0.4983340000000  0.0448560000000  0.3125020000000 1.0   3.75
Fe     4 -0.2676460000000 -0.4983340000000 -0.3125020000000 1.0   3.75
Fe     4 -0.0448560000000  0.1858320000000 -0.3125020000000 1.0   3.75
END
