TITL LFSO-Li2Fe3S2O2-201022-125842-fe30e5 -0.5315 227.272811 -4.46860333E+003 11.2072 11.6925 9 (P2/m) n - 1
REM
REM Run started: Thu, 22 Oct 2020 15:22:31 +0100 in /lustre/scratch/uccabz1/launch_tmp/launcher_2020-10-22-11-58-40-154064
REM CASTEP 20.1 from code version af48c487+ pr-geom-scf-spinfix Tue Jun 2 15:39:59 2020 +0100
REM Functional Perdew Burke Ernzerhof Relativity Koelling-Harmon Dispersion off
REM Cut-off 340.0000 eV Grid scale 1.7500 Gmax 16.5316 1/A FBSC none
REM MP grid 5 2 3 Offset 0.000 0.000 0.000 No. kpts 9 Spacing 0.07
REM Total runtime: 9561.57 s
REM Overall efficiency: 85.1667 %
REM
REM
REM
REM compiler GCC version 4.9.2
REM options -cpp -iprefix /lustre/shared/ucl/apps/gcc/4.9.2/bin/../lib/gcc/x86_64-unknown-linux-gnu/4.9.2/ -mtune=corei7 -march=x86-64 -g -Og
REM COMMAND_LINE
REM seed -1383697268 -1681882147 -852784043 -385602860 1240064907 -643306517 1832977427 578736939 680946514 1422140127 1699564008 167844602
REM
REM S 3|1.8|5|6|7|30:31:32(qc=5)
REM O 2|1.5|12|13|15|20:21(qc=5)
REM Li 1|1.3|8|9|10|10U:20(qc=5)
REM Fe 3|2.2|2.0|1.0|8|9|10|40:41:32(qc=5)
REM Fe d:4.0 
REM
CELL 1.54180    3.39753   12.68332    6.83490  129.49794   90.00000   90.00000
LATT -1
SFAC Li O  S  Fe 
Li     1 -0.5000000000000  0.3051920000000 -0.5305920000000 1.0  -0.02
Li     1 -0.5000000000000 -0.3051920000000  0.5305920000000 1.0  -0.02
O      2 -0.5000000000000 -0.3050550000000 -0.2021690000000 1.0   0.18
O      2 -0.5000000000000  0.3050550000000  0.2021690000000 1.0   0.18
S      3  0.0000000000000 -0.2740670000000  0.3123840000000 1.0  -0.08
S      3  0.0000000000000  0.2740670000000 -0.3123840000000 1.0  -0.08
Fe     4  0.0000000000000 -0.2925030000000 -0.0581670000000 1.0   3.81
Fe     4  0.0000000000000  0.2925030000000  0.0581670000000 1.0   3.81
Fe     4  0.0000000000000 -0.5000000000000  0.0000000000000 1.0   3.41
END
