TITL LFSO-Li2Fe4S3O2-201025-211630-ef4877 0.0543 203.510360 -5.63533398E+003 15.9999 16.0421 11 (R32) n - 1
REM
REM Run started: Mon, 26 Oct 2020 00:00:33 +0000 in /lustre/scratch/uccabz1/launch_tmp/launcher_2020-10-25-21-16-28-496974
REM CASTEP 20.1 from code version af48c487+ pr-geom-scf-spinfix Tue Jun 2 15:39:59 2020 +0100
REM Functional Perdew Burke Ernzerhof Relativity Koelling-Harmon Dispersion off
REM Cut-off 340.0000 eV Grid scale 1.7500 Gmax 16.5316 1/A FBSC none
REM MP grid 3 3 3 Offset 0.000 0.000 0.000 No. kpts 6 Spacing 0.07
REM Total runtime: 10255.1 s
REM Overall efficiency: 95.8889 %
REM
REM
REM
REM compiler GCC version 4.9.2
REM options -cpp -iprefix /lustre/shared/ucl/apps/gcc/4.9.2/bin/../lib/gcc/x86_64-unknown-linux-gnu/4.9.2/ -mtune=corei7 -march=x86-64 -g -Og
REM COMMAND_LINE
REM seed -420935489 -62780819 -835126997 1569563497 2140328622 -1730681993 -368736916 1263806436 591762362 2142590224 1231322572 1710107482
REM
REM S 3|1.8|5|6|7|30:31:32(qc=5)
REM O 2|1.5|12|13|15|20:21(qc=5)
REM Li 1|1.3|8|9|10|10U:20(qc=5)
REM Fe 3|2.2|2.0|1.0|8|9|10|40:41:32(qc=5)
REM Fe d:4.0 
REM
CELL 1.54180    6.24136    6.24136    6.24136   68.72824   68.72824   68.72824
LATT -1
SFAC Li O  S  Fe 
Li     1 -0.0515420000000 -0.0515420000000 -0.0515420000000 1.0  -0.03
Li     1 -0.4246130000000 -0.4246130000000 -0.4246130000000 1.0  -0.03
O      2  0.0939620000000  0.0939620000000  0.0939620000000 1.0   0.20
O      2  0.4272610000000  0.4272610000000  0.4272610000000 1.0   0.20
S      3  0.2599740000000 -0.4026280000000 -0.0759290000000 1.0   0.16
S      3 -0.0759290000000  0.2599740000000 -0.4026280000000 1.0   0.16
S      3 -0.4026280000000 -0.0759290000000  0.2599740000000 1.0   0.16
Fe     4  0.3270070000000 -0.2407470000000 -0.8051610000000 1.0   3.83
Fe     4 -0.8051610000000  0.3270070000000 -0.2407470000000 1.0   3.83
Fe     4 -0.2407470000000 -0.8051610000000  0.3270070000000 1.0   3.83
Fe     4  0.2593170000000  0.2593170000000  0.2593170000000 1.0   3.71
END
