TITL LFSO-LiFe3S4O-201028-160830-c5ad75 0.0084 454.100534 -8.87060646E+003 23.9930 24.3862 18 (P3) n - 1
REM
REM Run started: Wed, 28 Oct 2020 23:11:13 +0000 in /lustre/scratch/uccabz1/launch_tmp/launcher_2020-10-28-16-08-29-038877
REM CASTEP 20.1 from code version af48c487+ pr-geom-scf-spinfix Tue Jun 2 15:39:59 2020 +0100
REM Functional Perdew Burke Ernzerhof Relativity Koelling-Harmon Dispersion off
REM Cut-off 340.0000 eV Grid scale 1.7500 Gmax 16.5316 1/A FBSC none
REM MP grid 3 3 2 Offset 0.000 0.000 0.000 No. kpts 5 Spacing 0.07
REM Total runtime: 26281.9 s
REM Overall efficiency: 75.3077 %
REM
REM
REM
REM compiler GCC version 4.9.2
REM options -cpp -iprefix /lustre/shared/ucl/apps/gcc/4.9.2/bin/../lib/gcc/x86_64-unknown-linux-gnu/4.9.2/ -mtune=corei7 -march=x86-64 -g -Og
REM COMMAND_LINE
REM seed 1706539127 -1529701478 -1077254356 1810769083 658955329 -831169718 301668355 164194902 -221610337 1493270815 -669513138 -81917272
REM
REM S 3|1.8|5|6|7|30:31:32(qc=5)
REM O 2|1.5|12|13|15|20:21(qc=5)
REM Li 1|1.3|8|9|10|10U:20(qc=5)
REM Fe 3|2.2|2.0|1.0|8|9|10|40:41:32(qc=5)
REM Fe d:4.0 
REM
CELL 1.54180    8.23237    8.23237    7.73699   90.00000   90.00000  120.00000
LATT -1
SFAC Li O  S  Fe 
Li     1  0.3333330000000 -0.3333330000000  0.3856480000000 1.0  -0.03
Li     1 -0.0000000000000  0.0000000000000  0.2782840000000 1.0  -0.04
O      2  0.3333330000000 -0.3333330000000 -0.3700190000000 1.0   1.29
O      2 -0.3333330000000  0.3333330000000 -0.0302570000000 1.0   0.27
S      3  0.2662610000000  0.1528680000000 -0.2812970000000 1.0   0.04
S      3 -0.1133930000000 -0.2662610000000 -0.2812970000000 1.0   0.04
S      3 -0.1528680000000  0.1133930000000 -0.2812970000000 1.0   0.04
S      3 -0.3358770000000 -0.1338530000000  0.2099080000000 1.0   0.06
S      3  0.2020240000000  0.3358770000000  0.2099080000000 1.0   0.06
S      3  0.1338530000000 -0.2020240000000  0.2099080000000 1.0   0.06
S      3 -0.3333330000000  0.3333330000000  0.3417940000000 1.0   0.50
S      3 -0.0000000000000  0.0000000000000 -0.3915820000000 1.0   0.03
Fe     4  0.0634260000000  0.2474490000000 -0.0509020000000 1.0   3.52
Fe     4  0.1840230000000 -0.0634260000000 -0.0509020000000 1.0   3.52
Fe     4 -0.2474490000000 -0.1840230000000 -0.0509020000000 1.0   3.52
Fe     4 -0.3277050000000  0.1360940000000  0.1143190000000 1.0   3.70
Fe     4 -0.5362010000000  0.3277050000000  0.1143190000000 1.0   3.70
Fe     4 -0.1360940000000  0.5362010000000  0.1143190000000 1.0   3.70
END
