TITL LFSO-Li2Fe2S2O-201023-162417-d32cbe -0.0308 310.102916 -6.33813951E+003 16.0000 16.1726 14 (C2) n - 1
REM
REM Run started: Fri, 23 Oct 2020 20:05:12 +0100 in /lustre/scratch/uccabz1/launch_tmp/launcher_2020-10-23-15-24-15-926657
REM CASTEP 20.1 from code version af48c487+ pr-geom-scf-spinfix Tue Jun 2 15:39:59 2020 +0100
REM Functional Perdew Burke Ernzerhof Relativity Koelling-Harmon Dispersion off
REM Cut-off 340.0000 eV Grid scale 1.7500 Gmax 16.5316 1/A FBSC none
REM MP grid 5 2 2 Offset 0.000 0.000 0.000 No. kpts 10 Spacing 0.07
REM Total runtime: 14557.1 s
REM Overall efficiency: 75.7778 %
REM
REM
REM
REM compiler GCC version 4.9.2
REM options -cpp -iprefix /lustre/shared/ucl/apps/gcc/4.9.2/bin/../lib/gcc/x86_64-unknown-linux-gnu/4.9.2/ -mtune=corei7 -march=x86-64 -g -Og
REM COMMAND_LINE
REM seed 1010134178 2107700145 1513338877 913057369 1502688382 -1472836225 -1300459845 1482482181 353865551 -500576293 1953404730 -1664189555
REM
REM S 3|1.8|5|6|7|30:31:32(qc=5)
REM O 2|1.5|12|13|15|20:21(qc=5)
REM Li 1|1.3|8|9|10|10U:20(qc=5)
REM Fe 3|2.2|2.0|1.0|8|9|10|40:41:32(qc=5)
REM Fe d:4.0 
REM
CELL 1.54180    4.05634   10.29442    9.49231  116.55708   88.40459  116.44752
LATT -1
SFAC Li O  S  Fe 
Li     1 -0.5196390000000  0.2366270000000 -0.1082870000000 1.0  -0.05
Li     1  0.4113520000000 -0.3449140000000 -0.1082870000000 1.0  -0.05
Li     1 -0.3032100000000 -0.0913320000000  0.2496050000000 1.0  -0.03
Li     1  0.5528150000000  0.3409370000000  0.2496050000000 1.0  -0.03
O      2  0.4272080000000 -0.3363800000000  0.0917450000000 1.0   0.17
O      2 -0.3354630000000  0.4281250000000  0.0917450000000 1.0   0.17
S      3  0.2486250000000 -0.0378180000000  0.3643240000000 1.0   0.13
S      3  0.1157000000000  0.4021430000000  0.3643240000000 1.0   0.13
S      3 -0.1947490000000  0.0497530000000 -0.2434040000000 1.0   0.13
S      3 -0.0486550000000  0.7068430000000 -0.2434040000000 1.0   0.13
Fe     4  0.2015960000000  0.4642340000000  0.1474180000000 1.0   3.84
Fe     4 -0.0541780000000 -0.3168160000000  0.1474180000000 1.0   3.84
Fe     4 -0.5972130000000 -0.3482740000000 -0.3942360000000 1.0   3.82
Fe     4  0.2029770000000 -0.0459620000000 -0.3942360000000 1.0   3.82
END
