TITL LFSO-Li2Fe4S3O2-201026-002912-cb673f -0.1915 398.382914 -1.12669499E+004 -0.740831E-02 30.4836 22 (P3) n - 1
REM
REM Run started: Wed, 28 Oct 2020 01:52:11 +0000 in /lustre/scratch/uccabz1/launch_tmp/launcher_2020-10-27-22-14-10-435776
REM CASTEP 20.1 from code version af48c487+ pr-geom-scf-spinfix Tue Jun 2 15:39:59 2020 +0100
REM Functional Perdew Burke Ernzerhof Relativity Koelling-Harmon Dispersion off
REM Cut-off 340.0000 eV Grid scale 1.7500 Gmax 16.5316 1/A FBSC none
REM MP grid 3 3 2 Offset 0.000 0.000 0.000 No. kpts 5 Spacing 0.07
REM Total runtime: 57895.5 s
REM Overall efficiency: 67.5385 %
REM
REM
REM
REM compiler GCC version 4.9.2
REM options -cpp -iprefix /lustre/shared/ucl/apps/gcc/4.9.2/bin/../lib/gcc/x86_64-unknown-linux-gnu/4.9.2/ -mtune=corei7 -march=x86-64 -g -Og
REM COMMAND_LINE
REM seed 265256249 -1928622245 -664602217 -1191900867 -1643857972 -948443922 -853629415 1190490742 1957398715 971424104 -1330794767 592228258
REM
REM S 3|1.8|5|6|7|30:31:32(qc=5)
REM O 2|1.5|12|13|15|20:21(qc=5)
REM Li 1|1.3|8|9|10|10U:20(qc=5)
REM Fe 3|2.2|2.0|1.0|8|9|10|40:41:32(qc=5)
REM Fe d:4.0 
REM
CELL 1.54180    6.59430    6.59430   10.57873   90.00000   90.00000  120.00000
LATT -1
SFAC Li O  S  Fe 
Li     1  0.0563300000000  0.5275900000000  0.1420000000000 1.0  -0.05
Li     1 -0.5287400000000 -0.0563300000000  0.1420000000000 1.0  -0.05
Li     1 -0.5275900000000  0.5287400000000  0.1420000000000 1.0  -0.05
Li     1 -0.3333330000000  0.3333330000000  0.3101930000000 1.0   0.02
O      2 -0.0999670000000  0.2598780000000  0.3856950000000 1.0   0.07
O      2  0.3598450000000  0.0999670000000  0.3856950000000 1.0   0.07
O      2 -0.2598780000000 -0.3598450000000  0.3856950000000 1.0   0.07
O      2  0.3333330000000 -0.3333330000000  0.2476360000000 1.0   0.04
S      3  0.0027090000000 -0.3614100000000 -0.3645800000000 1.0  -0.07
S      3 -0.3641190000000 -0.0027090000000 -0.3645800000000 1.0  -0.07
S      3  0.3614100000000  0.3641190000000 -0.3645800000000 1.0  -0.07
S      3 -0.0233140000000  0.3450220000000 -0.0544810000000 1.0   0.01
S      3  0.3683370000000  0.0233140000000 -0.0544810000000 1.0   0.01
S      3 -0.3450220000000 -0.3683370000000 -0.0544810000000 1.0   0.01
Fe     4  0.2363660000000  0.3250550000000  0.4037880000000 1.0   3.82
Fe     4  0.0886890000000 -0.2363660000000  0.4037880000000 1.0   3.82
Fe     4 -0.3250550000000 -0.0886890000000  0.4037880000000 1.0   3.82
Fe     4  0.2772940000000 -0.0138620000000 -0.2630600000000 1.0  -3.72
Fe     4 -0.2911560000000 -0.2772940000000 -0.2630600000000 1.0  -3.72
Fe     4  0.0138620000000  0.2911560000000 -0.2630600000000 1.0  -3.72
Fe     4 -0.3333330000000  0.3333330000000  0.5275660000000 1.0  -3.75
Fe     4  0.3333330000000 -0.3333330000000 -0.0711130000000 1.0   3.51
END
