TITL LFSO-Li2Fe4S4O-201024-074559-c41df8 0.0304 241.269276 -5.50135836E+003 8.00000 15.5315 11 (R3) n - 1
REM
REM Run started: Sat, 24 Oct 2020 13:22:09 +0100 in /lustre/scratch/uccabz1/launch_tmp/launcher_2020-10-24-06-45-58-112150
REM CASTEP 20.1 from code version af48c487+ pr-geom-scf-spinfix Tue Jun 2 15:39:59 2020 +0100
REM Functional Perdew Burke Ernzerhof Relativity Koelling-Harmon Dispersion off
REM Cut-off 340.0000 eV Grid scale 1.7500 Gmax 16.5316 1/A FBSC none
REM MP grid 3 3 3 Offset 0.000 0.000 0.000 No. kpts 6 Spacing 0.07
REM Total runtime: 15518.3 s
REM Overall efficiency: 75.3 %
REM
REM
REM
REM compiler GCC version 4.9.2
REM options -cpp -iprefix /lustre/shared/ucl/apps/gcc/4.9.2/bin/../lib/gcc/x86_64-unknown-linux-gnu/4.9.2/ -mtune=corei7 -march=x86-64 -g -Og
REM COMMAND_LINE
REM seed 486389759 -1388814534 -1732677504 1132480820 611274114 131853769 -47515388 -478202028 -522579646 2053563709 411495270 -108776301
REM
REM S 3|1.8|5|6|7|30:31:32(qc=5)
REM O 2|1.5|12|13|15|20:21(qc=5)
REM Li 1|1.3|8|9|10|10U:20(qc=5)
REM Fe 3|2.2|2.0|1.0|8|9|10|40:41:32(qc=5)
REM Fe d:4.0 
REM
CELL 1.54180    6.76659    6.76659    6.76659   64.62413   64.62412   64.62412
LATT -1
SFAC Li O  S  Fe 
Li     1 -0.2874350000000 -0.2874350000000 -0.2874350000000 1.0  -0.06
Li     1 -0.5075710000000 -0.5075710000000 -0.5075710000000 1.0  -0.06
O      2  0.3702840000000  0.3702840000000  0.3702840000000 1.0   0.21
S      3  0.3035210000000 -0.1488560000000 -0.2706610000000 1.0   0.04
S      3 -0.1488560000000 -0.2706610000000  0.3035210000000 1.0   0.04
S      3 -0.2706610000000  0.3035210000000 -0.1488560000000 1.0   0.04
S      3  0.1811680000000  0.1811680000000  0.1811680000000 1.0   0.12
Fe     4  0.0601090000000  0.3064040000000 -0.4738940000000 1.0   3.81
Fe     4  0.3064040000000 -0.4738940000000  0.0601090000000 1.0   3.81
Fe     4 -0.4738940000000  0.0601090000000  0.3064040000000 1.0   3.81
Fe     4  0.0255830000000  0.0255830000000  0.0255830000000 1.0  -3.76
END
