TITL LFSO-Li2Fe3S3O-201025-081922-e00ce6 -0.0038 216.385867 -4.33550688E+003 12.0000 12.0802 9 (R3) n - 1
REM
REM Run started: Sun, 25 Oct 2020 09:47:04 +0000 in /lustre/scratch/uccabz1/launch_tmp/launcher_2020-10-25-08-19-20-717721
REM CASTEP 20.1 from code version af48c487+ pr-geom-scf-spinfix Tue Jun 2 15:39:59 2020 +0100
REM Functional Perdew Burke Ernzerhof Relativity Koelling-Harmon Dispersion off
REM Cut-off 340.0000 eV Grid scale 1.7500 Gmax 16.5316 1/A FBSC none
REM MP grid 3 3 3 Offset 0.000 0.000 0.000 No. kpts 6 Spacing 0.07
REM Total runtime: 5658.19 s
REM Overall efficiency: 76 %
REM
REM
REM
REM compiler GCC version 4.9.2
REM options -cpp -iprefix /lustre/shared/ucl/apps/gcc/4.9.2/bin/../lib/gcc/x86_64-unknown-linux-gnu/4.9.2/ -mtune=corei7 -march=x86-64 -g -Og
REM COMMAND_LINE
REM seed -881184950 -308296911 -719202738 -1470786033 805100558 1084045216 -1166706736 -416049656 -2023978109 1039272661 -767559414 941783531
REM
REM S 3|1.8|5|6|7|30:31:32(qc=5)
REM O 2|1.5|12|13|15|20:21(qc=5)
REM Li 1|1.3|8|9|10|10U:20(qc=5)
REM Fe 3|2.2|2.0|1.0|8|9|10|40:41:32(qc=5)
REM Fe d:4.0 
REM
CELL 1.54180    6.01428    6.01428    6.01428   86.51471   86.51471   86.51471
LATT -1
SFAC Li O  S  Fe 
Li     1  0.3256410000000  0.3256410000000  0.3256410000000 1.0  -0.02
Li     1 -0.3141250000000 -0.3141250000000 -0.3141250000000 1.0  -0.06
O      2 -0.1183230000000 -0.1183230000000 -0.1183230000000 1.0   0.22
S      3  0.4608460000000  0.0091120000000 -0.4519660000000 1.0   0.12
S      3  0.0091120000000 -0.4519660000000  0.4608460000000 1.0   0.12
S      3 -0.4519660000000  0.4608460000000  0.0091120000000 1.0   0.12
Fe     4 -0.1556710000000  0.6562340000000  0.1326640000000 1.0   3.84
Fe     4  0.6562340000000  0.1326640000000 -0.1556710000000 1.0   3.84
Fe     4  0.1326640000000 -0.1556710000000  0.6562340000000 1.0   3.84
END
