TITL LFSO-Li2FeSO-201025-153551-c3ce64 0.0235 167.747833 -4.00003202E+003 8.05859 8.29332 10 (P3) n - 1
REM
REM Run started: Sun, 25 Oct 2020 15:59:06 +0000 in /lustre/scratch/uccabz1/launch_tmp/launcher_2020-10-25-15-35-49-901906
REM CASTEP 20.1 from code version af48c487+ pr-geom-scf-spinfix Tue Jun 2 15:39:59 2020 +0100
REM Functional Perdew Burke Ernzerhof Relativity Koelling-Harmon Dispersion off
REM Cut-off 340.0000 eV Grid scale 1.7500 Gmax 16.5316 1/A FBSC none
REM MP grid 5 5 2 Offset 0.000 0.000 0.000 No. kpts 9 Spacing 0.07
REM Total runtime: 1453.67 s
REM Overall efficiency: 80.8333 %
REM
REM
REM
REM compiler GCC version 4.9.2
REM options -cpp -iprefix /lustre/shared/ucl/apps/gcc/4.9.2/bin/../lib/gcc/x86_64-unknown-linux-gnu/4.9.2/ -mtune=corei7 -march=x86-64 -g -Og
REM COMMAND_LINE
REM seed 209820204 1467631506 -1472884047 458443548 -1545297445 -1764891902 574818772 2035770227 -119086030 1551545518 32014010 -216275374
REM
REM S 3|1.8|5|6|7|30:31:32(qc=5)
REM O 2|1.5|12|13|15|20:21(qc=5)
REM Li 1|1.3|8|9|10|10U:20(qc=5)
REM Fe 3|2.2|2.0|1.0|8|9|10|40:41:32(qc=5)
REM Fe d:4.0 
REM
CELL 1.54180    3.96745    3.96745   12.30561   90.00000   90.00000  120.00000
LATT -1
SFAC Li O  S  Fe 
Li     1  0.3364350000000  0.0590790000000  0.2146330000000 1.0  -0.04
Li     1 -0.2773560000000 -0.3364350000000  0.2146330000000 1.0  -0.04
Li     1 -0.0590790000000  0.2773560000000  0.2146330000000 1.0  -0.04
Li     1 -0.0000000000000  0.0000000000000 -0.2490540000000 1.0  -0.07
O      2 -0.0000000000000  0.0000000000000 -0.4022330000000 1.0   0.31
O      2 -0.3333330000000  0.3333330000000 -0.2400160000000 1.0   0.58
S      3 -0.3333330000000  0.3333330000000  0.0496840000000 1.0   0.05
S      3  0.3333330000000 -0.3333330000000  0.3293650000000 1.0   0.00
Fe     4 -0.3333330000000  0.3333330000000 -0.3862210000000 1.0   4.11
Fe     4 -0.0000000000000  0.0000000000000  0.0128350000000 1.0   3.21
END
