TITL LFSO-Li5FeSO3-201026-204302-fd55cb 0.0080 250.979852 -3.47052206E+003 5.00005 5.25832 10 (P4mm) n - 1
REM
REM Run started: Mon, 26 Oct 2020 22:26:23 +0000 in /scratch/scratch/uccabz1/launch_tmp/launcher_2020-10-26-20-43-00-974914
REM CASTEP 19.11| from code version Version unavailable
REM Functional Perdew Burke Ernzerhof Relativity Koelling-Harmon Dispersion off
REM Cut-off 340.0000 eV Grid scale 1.7500 Gmax 16.5316 1/A FBSC none
REM MP grid 4 4 2 Offset 0.000 0.000 0.000 No. kpts 3 Spacing 0.07
REM Total runtime: 6747.12 s
REM Overall efficiency: 75.7 %
REM
REM
REM
REM compiler GCC version 4.9.2
REM options -cpp -iprefix /scratch/UCL/applications/gcc/4.9.2/bin/../lib/gcc/x86_64-unknown-linux-gnu/4.9.2/ -mtune=corei7 -march=x86-64 -g -O2
REM COMMAND_LINE
REM seed -242905247 2088314362 -545145650 -1212692991 -1648447158 -117637400 -1411224117 -1703298986 -116934069 104220357 -1090795889 2072631436
REM
REM S 3|1.8|5|6|7|30:31:32(qc=5)
REM O 2|1.5|12|13|15|20:21(qc=5)
REM Li 1|1.3|8|9|10|10U:20(qc=5)
REM Fe 3|2.2|2.0|1.0|8|9|10|40:41:32(qc=5)
REM Fe d:4.0 
REM
CELL 1.54180    4.56896    4.56896   12.02275   90.00000   90.00000   90.00000
LATT -1
SFAC Li O  S  Fe 
Li     1  0.2550290000000  0.2550290000000  0.0151510000000 1.0  -0.00
Li     1 -0.2550290000000 -0.2550290000000  0.0151510000000 1.0  -0.00
Li     1 -0.2550290000000  0.2550290000000  0.0151510000000 1.0  -0.00
Li     1  0.2550290000000 -0.2550290000000  0.0151510000000 1.0  -0.00
Li     1  0.5000000000000  0.5000000000000 -0.1515680000000 1.0   0.01
O      2  0.0000000000000  0.5000000000000 -0.0474070000000 1.0   0.00
O      2 -0.5000000000000  0.0000000000000 -0.0474070000000 1.0   0.00
O      2  0.0000000000000  0.0000000000000 -0.5665400000000 1.0   1.10
S      3 -0.5000000000000 -0.5000000000000  0.1786990000000 1.0   0.04
Fe     4 -0.5000000000000 -0.5000000000000 -0.6333460000000 1.0   3.85
END
