TITL LFSO-Li5FeSO3-201026-174043-1160a6 -0.0208 282.788297 -6.95873931E+003 -0.216184E-13 9.56542 20 (R3) n - 1
REM
REM Run started: Tue, 27 Oct 2020 00:35:41 +0000 in /lustre/scratch/uccabz1/launch_tmp/launcher_2020-10-26-17-40-41-819877
REM CASTEP 20.1 from code version af48c487+ pr-geom-scf-spinfix Tue Jun 2 15:39:59 2020 +0100
REM Functional Perdew Burke Ernzerhof Relativity Koelling-Harmon Dispersion off
REM Cut-off 340.0000 eV Grid scale 1.7500 Gmax 16.5316 1/A FBSC none
REM MP grid 3 3 3 Offset 0.000 0.000 0.000 No. kpts 6 Spacing 0.07
REM Total runtime: 25067 s
REM Overall efficiency: 97.0909 %
REM
REM
REM
REM compiler GCC version 4.9.2
REM options -cpp -iprefix /lustre/shared/ucl/apps/gcc/4.9.2/bin/../lib/gcc/x86_64-unknown-linux-gnu/4.9.2/ -mtune=corei7 -march=x86-64 -g -Og
REM COMMAND_LINE
REM seed 927321089 -495831962 1757814106 -1496441345 -1036340320 2057723685 1026752946 -421881635 -540560794 442132119 -1223547262 -834388886
REM
REM S 3|1.8|5|6|7|30:31:32(qc=5)
REM O 2|1.5|12|13|15|20:21(qc=5)
REM Li 1|1.3|8|9|10|10U:20(qc=5)
REM Fe 3|2.2|2.0|1.0|8|9|10|40:41:32(qc=5)
REM Fe d:4.0 
REM
CELL 1.54180    6.66567    6.66567    6.66567   79.45075   79.45075   79.45075
LATT -1
SFAC Li O  S  Fe 
Li     1 -0.1755410000000 -0.2050090000000  0.2632070000000 1.0   0.02
Li     1 -0.2050090000000  0.2632070000000 -0.1755410000000 1.0   0.02
Li     1  0.2632070000000 -0.1755410000000 -0.2050090000000 1.0   0.02
Li     1  0.0120070000000  0.0387450000000  0.4803680000000 1.0  -0.06
Li     1  0.0387450000000  0.4803680000000  0.0120070000000 1.0  -0.06
Li     1  0.4803680000000  0.0120070000000  0.0387450000000 1.0  -0.06
Li     1 -0.4007640000000  0.1278010000000  0.3480540000000 1.0   0.00
Li     1  0.1278010000000  0.3480540000000 -0.4007640000000 1.0   0.00
Li     1  0.3480540000000 -0.4007640000000  0.1278010000000 1.0   0.00
Li     1  0.0415860000000  0.0415860000000  0.0415860000000 1.0  -0.00
O      2 -0.0934430000000 -0.4821120000000 -0.2254570000000 1.0  -0.17
O      2 -0.4821120000000 -0.2254570000000 -0.0934430000000 1.0  -0.17
O      2 -0.2254570000000 -0.0934430000000 -0.4821120000000 1.0  -0.17
O      2  0.0476330000000  0.0622680000000 -0.2643740000000 1.0   0.24
O      2  0.0622680000000 -0.2643740000000  0.0476330000000 1.0   0.24
O      2 -0.2643740000000  0.0476330000000  0.0622680000000 1.0   0.24
S      3  0.2222260000000  0.2222260000000  0.2222260000000 1.0   0.01
S      3  0.4973750000000  0.4973750000000  0.4973750000000 1.0  -0.24
Fe     4 -0.1421320000000 -0.1421320000000 -0.1421320000000 1.0   4.13
Fe     4 -0.3351020000000 -0.3351020000000 -0.3351020000000 1.0  -4.00
END
