TITL LFSO-Li2Fe3S3O-201026-061325-96c1d1 0.0245 364.991740 -8.67083807E+003 8.00000 23.0832 18 (C2) n - 1
REM
REM Run started: Tue, 27 Oct 2020 00:41:22 +0000 in /scratch/scratch/uccabz1/launch_tmp/launcher_2020-10-26-06-13-24-123296
REM CASTEP 19.11| from code version Version unavailable
REM Functional Perdew Burke Ernzerhof Relativity Koelling-Harmon Dispersion off
REM Cut-off 340.0000 eV Grid scale 1.7500 Gmax 16.5316 1/A FBSC none
REM MP grid 3 2 3 Offset 0.000 0.000 0.000 No. kpts 9 Spacing 0.07
REM Total runtime: 69033.4 s
REM Overall efficiency: 76.2308 %
REM
REM
REM
REM compiler GCC version 4.9.2
REM options -cpp -iprefix /scratch/UCL/applications/gcc/4.9.2/bin/../lib/gcc/x86_64-unknown-linux-gnu/4.9.2/ -mtune=corei7 -march=x86-64 -g -O2
REM COMMAND_LINE
REM seed -417538056 -1448654437 1898595327 -1383217094 -319876750 -872660481 -825136348 1360147708 1161008321 1358308995 422718596 -1038590322
REM
REM S 3|1.8|5|6|7|30:31:32(qc=5)
REM O 2|1.5|12|13|15|20:21(qc=5)
REM Li 1|1.3|8|9|10|10U:20(qc=5)
REM Fe 3|2.2|2.0|1.0|8|9|10|40:41:32(qc=5)
REM Fe d:4.0 
REM
CELL 1.54180    6.73321   10.55020    7.36488   44.25422   90.97928   91.36729
LATT -1
SFAC Li O  S  Fe 
Li     1 -0.2948170000000 -0.3714230000000 -0.4158740000000 1.0   0.01
Li     1  0.2948170000000 -0.2127030000000 -0.4158740000000 1.0   0.01
Li     1 -0.1822690000000  0.2381160000000  0.1126760000000 1.0  -0.07
Li     1  0.1822690000000 -0.3507920000000  0.1126760000000 1.0  -0.07
O      2  0.3307470000000  0.6112130000000 -0.0548940000000 1.0   0.16
O      2 -0.3307470000000  0.4436810000000 -0.0548940000000 1.0   0.16
S      3  0.2457460000000  0.0762760000000 -0.1849660000000 1.0   0.02
S      3 -0.2457460000000  0.1086900000000 -0.1849660000000 1.0   0.02
S      3 -0.2875900000000 -0.0781240000000  0.5512950000000 1.0   0.04
S      3  0.2875900000000 -0.4731700000000  0.5512950000000 1.0   0.04
S      3 -0.1948270000000 -0.4161070000000  0.3083550000000 1.0  -0.02
S      3  0.1948270000000  0.1077520000000  0.3083550000000 1.0  -0.02
Fe     4 -0.5355630000000  0.0545560000000 -0.4044450000000 1.0  -3.73
Fe     4  0.5355630000000  0.3498900000000 -0.4044450000000 1.0  -3.73
Fe     4 -0.3796310000000 -0.3878710000000 -0.0075610000000 1.0   3.88
Fe     4  0.3796310000000  0.3954320000000 -0.0075610000000 1.0   3.88
Fe     4  0.0213070000000  0.3308070000000 -0.3655880000000 1.0   3.71
Fe     4 -0.0213070000000  0.0347810000000 -0.3655880000000 1.0   3.71
END
