TITL LFSO-Li4Fe3S3O2-201028-204728-dd1832 0.0512 197.155461 -5.17055548E+003 10.0232 10.5639 12 (Fmm2) n - 1
REM
REM Run started: Wed, 28 Oct 2020 23:06:07 +0000 in /scratch/scratch/uccabz1/launch_tmp/launcher_2020-10-28-20-47-26-705979
REM CASTEP 19.11| from code version Version unavailable
REM Functional Perdew Burke Ernzerhof Relativity Koelling-Harmon Dispersion off
REM Cut-off 340.0000 eV Grid scale 1.7500 Gmax 16.5316 1/A FBSC none
REM MP grid 3 3 3 Offset 0.000 0.000 0.000 No. kpts 8 Spacing 0.07
REM Total runtime: 8985.57 s
REM Overall efficiency: 81.4167 %
REM
REM
REM
REM compiler GCC version 4.9.2
REM options -cpp -iprefix /scratch/UCL/applications/gcc/4.9.2/bin/../lib/gcc/x86_64-unknown-linux-gnu/4.9.2/ -mtune=corei7 -march=x86-64 -g -O2
REM COMMAND_LINE
REM seed -962328294 173296236 -1776746039 1692782434 570749082 1132352936 1449448487 1647984338 321402889 2021908080 -561982815 719145813
REM
REM S 3|1.8|5|6|7|30:31:32(qc=5)
REM O 2|1.5|12|13|15|20:21(qc=5)
REM Li 1|1.3|8|9|10|10U:20(qc=5)
REM Fe 3|2.2|2.0|1.0|8|9|10|40:41:32(qc=5)
REM Fe d:4.0 
REM
CELL 1.54180    5.54069    5.54069    7.52468  111.64256  111.64256   89.89928
LATT -1
SFAC Li O  S  Fe 
Li     1 -0.0176640000000  0.3412770000000 -0.2516780000000 1.0  -0.07
Li     1 -0.3412770000000  0.0176640000000  0.2516780000000 1.0  -0.07
Li     1  0.2340130000000 -0.4070450000000  0.2516780000000 1.0  -0.07
Li     1  0.4070450000000 -0.2340130000000 -0.2516780000000 1.0  -0.07
O      2 -0.3113080000000  0.3113080000000  0.5000000000000 1.0   0.05
O      2  0.1886920000000 -0.1886920000000 -0.5000000000000 1.0   0.05
S      3 -0.1528140000000 -0.1215320000000 -0.0000000000000 1.0   0.03
S      3  0.1215320000000  0.1528140000000 -0.0000000000000 1.0   0.03
S      3  0.4180640000000 -0.4180640000000 -0.0000000000000 1.0   0.02
Fe     4 -0.1091370000000  0.5773910000000  0.4682540000000 1.0   3.38
Fe     4 -0.5773910000000  0.1091370000000 -0.4682540000000 1.0   3.38
Fe     4 -0.2930710000000  0.2930710000000 -0.0000000000000 1.0   3.35
END
