TITL LFSO-Li6FeSO3-201028-081747-1fa9bd 0.0491 274.408063 -7.35956482E+003 8.00000 8.13126 22 (Pc) n - 1
REM
REM Run started: Wed, 28 Oct 2020 10:31:22 +0000 in /lustre/scratch/uccabz1/launch_tmp/launcher_2020-10-28-08-17-45-837067
REM CASTEP 20.1 from code version af48c487+ pr-geom-scf-spinfix Tue Jun 2 15:39:59 2020 +0100
REM Functional Perdew Burke Ernzerhof Relativity Koelling-Harmon Dispersion off
REM Cut-off 340.0000 eV Grid scale 1.7500 Gmax 16.5316 1/A FBSC none
REM MP grid 4 3 2 Offset 0.000 0.000 0.000 No. kpts 6 Spacing 0.07
REM Total runtime: 8521.51 s
REM Overall efficiency: 75.6667 %
REM
REM
REM
REM compiler GCC version 4.9.2
REM options -cpp -iprefix /lustre/shared/ucl/apps/gcc/4.9.2/bin/../lib/gcc/x86_64-unknown-linux-gnu/4.9.2/ -mtune=corei7 -march=x86-64 -g -Og
REM COMMAND_LINE
REM seed 756437397 820730014 155290820 1479649988 -895148324 -2007962546 -1084215149 1693994399 1690342983 349224492 -1904222223 -1505937974
REM
REM S 3|1.8|5|6|7|30:31:32(qc=5)
REM O 2|1.5|12|13|15|20:21(qc=5)
REM Li 1|1.3|8|9|10|10U:20(qc=5)
REM Fe 3|2.2|2.0|1.0|8|9|10|40:41:32(qc=5)
REM Fe d:4.0 
REM
CELL 1.54180    5.30062    8.52016    7.59115   90.00000   90.00000  126.83018
LATT -1
SFAC Li O  S  Fe 
Li     1  0.4898280000000  0.0378940000000  0.2859190000000 1.0  -0.06
Li     1 -0.0101720000000  0.5378940000000 -0.2859190000000 1.0  -0.06
Li     1 -0.1687320000000 -0.0799340000000 -0.1888960000000 1.0  -0.02
Li     1  0.3312680000000  0.4200660000000  0.1888960000000 1.0  -0.02
Li     1  0.0665880000000  0.1953250000000  0.5104410000000 1.0  -0.03
Li     1 -0.4334120000000 -0.3046750000000 -0.5104410000000 1.0  -0.03
Li     1 -0.1124040000000  0.3939450000000  0.0895930000000 1.0   0.02
Li     1  0.3875960000000 -0.1060550000000 -0.0895930000000 1.0   0.02
Li     1  0.1338250000000 -0.2044800000000  0.5120390000000 1.0   0.03
Li     1 -0.3661750000000  0.2955200000000 -0.5120390000000 1.0   0.03
Li     1  0.4052850000000  0.2026530000000 -0.0866400000000 1.0  -0.03
Li     1 -0.0947150000000 -0.2973470000000  0.0866400000000 1.0  -0.03
O      2 -0.3895890000000  0.4536410000000  0.0062020000000 1.0   0.07
O      2  0.1104110000000 -0.0463590000000 -0.0062020000000 1.0   0.07
O      2 -0.5814970000000 -0.2629810000000 -0.2844250000000 1.0   0.05
O      2 -0.0814970000000  0.2370190000000  0.2844250000000 1.0   0.05
O      2 -0.2921500000000  0.5450850000000 -0.4276290000000 1.0   0.09
O      2  0.2078500000000  0.0450850000000  0.4276290000000 1.0   0.09
S      3 -0.1197770000000  0.2296700000000 -0.2100200000000 1.0   0.04
S      3 -0.6197770000000 -0.2703300000000  0.2100200000000 1.0   0.04
Fe     4 -0.0325200000000  0.0230810000000  0.2027470000000 1.0   3.84
Fe     4  0.4674800000000 -0.4769190000000 -0.2027470000000 1.0   3.84
END
