TITL LFSO-Li5FeSO3-201027-090516-41c437 -0.0781 291.666240 -6.95602003E+003 8.00086 8.38147 20 (R3) n - 1
REM
REM Run started: Tue, 27 Oct 2020 09:56:33 +0000 in /scratch/scratch/uccabz1/launch_tmp/launcher_2020-10-27-09-05-14-392005
REM CASTEP 19.11| from code version Version unavailable
REM Functional Perdew Burke Ernzerhof Relativity Koelling-Harmon Dispersion off
REM Cut-off 340.0000 eV Grid scale 1.7500 Gmax 16.5316 1/A FBSC none
REM MP grid 3 3 3 Offset 0.000 0.000 0.000 No. kpts 6 Spacing 0.07
REM Total runtime: 3150.4 s
REM Overall efficiency: 69.1429 %
REM
REM
REM
REM compiler GCC version 4.9.2
REM options -cpp -iprefix /scratch/UCL/applications/gcc/4.9.2/bin/../lib/gcc/x86_64-unknown-linux-gnu/4.9.2/ -mtune=corei7 -march=x86-64 -g -O2
REM COMMAND_LINE
REM seed 934083369 1530822831 2017696826 -80814514 1164972254 -1343034156 192707367 1433112727 732938252 -958300240 1219818703 321977098
REM
REM S 3|1.8|5|6|7|30:31:32(qc=5)
REM O 2|1.5|12|13|15|20:21(qc=5)
REM Li 1|1.3|8|9|10|10U:20(qc=5)
REM Fe 3|2.2|2.0|1.0|8|9|10|40:41:32(qc=5)
REM Fe d:4.0 
REM
CELL 1.54180    7.14919    7.14919    7.14919   65.95082   65.95082   65.95082
LATT -1
SFAC Li O  S  Fe 
Li     1 -0.0850220000000  0.3662160000000  0.1207360000000 1.0   0.03
Li     1  0.1207360000000 -0.0850220000000  0.3662160000000 1.0   0.03
Li     1  0.3662160000000  0.1207360000000 -0.0850220000000 1.0   0.03
Li     1 -0.3446670000000  0.2329590000000  0.5209640000000 1.0  -0.02
Li     1  0.5209640000000 -0.3446670000000  0.2329590000000 1.0  -0.02
Li     1  0.2329590000000  0.5209640000000 -0.3446670000000 1.0  -0.02
Li     1  0.2727210000000  0.0287640000000 -0.4045960000000 1.0  -0.01
Li     1 -0.4045960000000  0.2727210000000  0.0287640000000 1.0  -0.01
Li     1  0.0287640000000 -0.4045960000000  0.2727210000000 1.0  -0.01
Li     1 -0.1128070000000 -0.1128070000000 -0.1128070000000 1.0  -0.02
O      2 -0.1502220000000 -0.0403930000000 -0.4474790000000 1.0   0.12
O      2 -0.4474790000000 -0.1502220000000 -0.0403930000000 1.0   0.12
O      2 -0.0403930000000 -0.4474790000000 -0.1502220000000 1.0   0.12
O      2 -0.2132370000000  0.5000000000000  0.3445480000000 1.0   0.23
O      2  0.3445480000000 -0.2132370000000  0.5000000000000 1.0   0.23
O      2  0.5000000000000  0.3445480000000 -0.2132370000000 1.0   0.23
S      3  0.0264260000000  0.0264260000000  0.0264260000000 1.0  -0.08
S      3  0.3572270000000  0.3572270000000  0.3572270000000 1.0  -0.00
Fe     4 -0.2520760000000 -0.2520760000000 -0.2520760000000 1.0   3.19
Fe     4 -0.4153660000000 -0.4153660000000 -0.4153660000000 1.0   3.87
END
