TITL LFSO-LiFe3S4O-201028-184028-9f3bff 0.0186 183.149577 -4.43502112E+003 9.83328 11.5439 9 (Amm2) n - 1
REM
REM Run started: Wed, 28 Oct 2020 20:02:34 +0000 in /lustre/scratch/uccabz1/launch_tmp/launcher_2020-10-28-18-40-27-041973
REM CASTEP 20.1 from code version af48c487+ pr-geom-scf-spinfix Tue Jun 2 15:39:59 2020 +0100
REM Functional Perdew Burke Ernzerhof Relativity Koelling-Harmon Dispersion off
REM Cut-off 340.0000 eV Grid scale 1.7500 Gmax 16.5316 1/A FBSC none
REM MP grid 4 4 2 Offset 0.000 0.000 0.000 No. kpts 6 Spacing 0.07
REM Total runtime: 4762.77 s
REM Overall efficiency: 74.6667 %
REM
REM
REM
REM compiler GCC version 4.9.2
REM options -cpp -iprefix /lustre/shared/ucl/apps/gcc/4.9.2/bin/../lib/gcc/x86_64-unknown-linux-gnu/4.9.2/ -mtune=corei7 -march=x86-64 -g -Og
REM COMMAND_LINE
REM seed 136943471 -128240861 919542323 975109802 959288529 185399906 1425341587 1646288985 1477433578 -1984512441 -296144846 -1705145593
REM
REM S 3|1.8|5|6|7|30:31:32(qc=5)
REM O 2|1.5|12|13|15|20:21(qc=5)
REM Li 1|1.3|8|9|10|10U:20(qc=5)
REM Fe 3|2.2|2.0|1.0|8|9|10|40:41:32(qc=5)
REM Fe d:4.0 
REM
CELL 1.54180    4.67070    4.67070    8.42249   90.00000   90.00000   94.59491
LATT -1
SFAC Li O  S  Fe 
Li     1  0.3627080000000  0.3627080000000  0.0000000000000 1.0  -0.07
O      2 -0.3454400000000 -0.3454400000000  0.0000000000000 1.0   0.11
S      3  0.0660330000000  0.4507400000000  0.2341620000000 1.0  -0.24
S      3  0.4507400000000  0.0660330000000 -0.2341620000000 1.0  -0.24
S      3  0.4507400000000  0.0660330000000  0.2341620000000 1.0  -0.24
S      3  0.0660330000000  0.4507400000000 -0.2341620000000 1.0  -0.24
Fe     4 -0.4217830000000 -0.4217830000000  0.2383490000000 1.0   3.47
Fe     4 -0.4217830000000 -0.4217830000000 -0.2383490000000 1.0   3.47
Fe     4 -0.0429980000000 -0.0429980000000  0.0000000000000 1.0   3.83
END
