TITL LFSO-Li4Fe2S3O-201026-183002-319962 0.0220 348.381102 -7.74622091E+003 16.0000 16.1871 20 (P3) n - 1
REM
REM Run started: Mon, 26 Oct 2020 22:31:49 +0000 in /scratch/scratch/uccabz1/launch_tmp/launcher_2020-10-26-18-30-00-797903
REM CASTEP 19.11| from code version Version unavailable
REM Functional Perdew Burke Ernzerhof Relativity Koelling-Harmon Dispersion off
REM Cut-off 340.0000 eV Grid scale 1.7500 Gmax 16.5316 1/A FBSC none
REM MP grid 3 3 2 Offset 0.000 0.000 0.000 No. kpts 5 Spacing 0.07
REM Total runtime: 14797.3 s
REM Overall efficiency: 73 %
REM
REM
REM
REM compiler GCC version 4.9.2
REM options -cpp -iprefix /scratch/UCL/applications/gcc/4.9.2/bin/../lib/gcc/x86_64-unknown-linux-gnu/4.9.2/ -mtune=corei7 -march=x86-64 -g -O2
REM COMMAND_LINE
REM seed -2113055673 -181128176 1776395342 480605270 -1277164723 1952068415 273628652 -1256954096 -1063791378 -1613348472 900460644 -533901639
REM
REM S 3|1.8|5|6|7|30:31:32(qc=5)
REM O 2|1.5|12|13|15|20:21(qc=5)
REM Li 1|1.3|8|9|10|10U:20(qc=5)
REM Fe 3|2.2|2.0|1.0|8|9|10|40:41:32(qc=5)
REM Fe d:4.0 
REM
CELL 1.54180    7.16532    7.16532    7.83525   90.00000   90.00000  120.00000
LATT -1
SFAC Li O  S  Fe 
Li     1  0.0051190000000 -0.2204530000000  0.2848210000000 1.0  -0.03
Li     1 -0.2255720000000 -0.0051190000000  0.2848210000000 1.0  -0.03
Li     1  0.2204530000000  0.2255720000000  0.2848210000000 1.0  -0.03
Li     1  0.1264470000000  0.2989190000000 -0.0956060000000 1.0  -0.01
Li     1  0.1724730000000 -0.1264470000000 -0.0956060000000 1.0  -0.01
Li     1 -0.2989190000000 -0.1724730000000 -0.0956060000000 1.0  -0.01
Li     1 -0.3333330000000  0.3333330000000 -0.1727620000000 1.0  -0.12
Li     1  0.3333330000000 -0.3333330000000  0.5100590000000 1.0   0.00
O      2  0.0000000000000 -0.0000000000000  0.4516130000000 1.0   0.12
O      2  0.0000000000000 -0.0000000000000 -0.2082630000000 1.0   0.16
S      3 -0.0015940000000  0.3619150000000  0.1816640000000 1.0   0.12
S      3  0.3635100000000  0.0015940000000  0.1816640000000 1.0   0.12
S      3 -0.3619150000000 -0.3635100000000  0.1816640000000 1.0   0.12
S      3  0.5261530000000 -0.0111300000000 -0.3129690000000 1.0   0.11
S      3  0.4627180000000 -0.5261530000000 -0.3129690000000 1.0   0.11
S      3  0.0111300000000 -0.4627180000000 -0.3129690000000 1.0   0.11
Fe     4  0.2725590000000  0.1032210000000 -0.3900540000000 1.0   3.85
Fe     4 -0.1693370000000 -0.2725590000000 -0.3900540000000 1.0   3.85
Fe     4 -0.1032210000000  0.1693370000000 -0.3900540000000 1.0   3.85
Fe     4 -0.3333330000000  0.3333330000000  0.1990760000000 1.0   3.71
END
