TITL LFSO-Li4Fe2S3O-201028-014611-8f598d -1.1263 241.111760 -3.87286809E+003 8.00000 8.09364 10 (Pm) n - 1
REM
REM Run started: Wed, 28 Oct 2020 06:11:17 +0000 in /scratch/scratch/uccabz1/launch_tmp/launcher_2020-10-28-01-46-10-316276
REM CASTEP 19.11| from code version Version unavailable
REM Functional Perdew Burke Ernzerhof Relativity Koelling-Harmon Dispersion off
REM Cut-off 340.0000 eV Grid scale 1.7500 Gmax 16.5316 1/A FBSC none
REM MP grid 5 2 3 Offset 0.000 0.000 0.000 No. kpts 8 Spacing 0.07
REM Total runtime: 17728 s
REM Overall efficiency: 89.8462 %
REM
REM
REM
REM compiler GCC version 4.9.2
REM options -cpp -iprefix /scratch/UCL/applications/gcc/4.9.2/bin/../lib/gcc/x86_64-unknown-linux-gnu/4.9.2/ -mtune=corei7 -march=x86-64 -g -O2
REM COMMAND_LINE
REM seed -1852318565 -875957160 921657963 910895049 1633289577 -711011673 -1193219375 -1698673943 -1335393436 -350414968 -887957147 -227049276
REM
REM S 3|1.8|5|6|7|30:31:32(qc=5)
REM O 2|1.5|12|13|15|20:21(qc=5)
REM Li 1|1.3|8|9|10|10U:20(qc=5)
REM Fe 3|2.2|2.0|1.0|8|9|10|40:41:32(qc=5)
REM Fe d:4.0 
REM
CELL 1.54180    3.86055   12.73775    6.15831   90.00000   52.76751   90.00000
LATT -1
SFAC Li O  S  Fe 
Li     1 -0.2256150000000  0.3915880000000 -0.1834240000000 1.0  -0.00
Li     1 -0.2256150000000 -0.3915880000000 -0.1834240000000 1.0  -0.00
Li     1 -0.2400200000000  0.3761410000000  0.3555480000000 1.0   0.02
Li     1 -0.2400200000000 -0.3761410000000  0.3555480000000 1.0   0.02
O      2  0.0191820000000  0.0000000000000  0.1508290000000 1.0   0.25
S      3 -0.5808920000000  0.2691730000000  0.1927890000000 1.0   0.02
S      3 -0.5808920000000 -0.2691730000000  0.1927890000000 1.0   0.02
S      3  0.3534910000000 -0.5000000000000 -0.2685990000000 1.0  -0.00
Fe     4 -0.0779900000000 -0.1427160000000  0.1821270000000 1.0   3.84
Fe     4 -0.0779900000000  0.1427160000000  0.1821270000000 1.0   3.84
END
