TITL LFSO-Li5FeSO3-201026-080803-0fbd55 0.0666 497.732207 -6.95145516E+003 8.00000 8.18837 20 (Cm) n - 1
REM
REM Run started: Mon, 26 Oct 2020 19:48:56 +0000 in /lustre/scratch/uccabz1/launch_tmp/launcher_2020-10-26-08-08-02-186768
REM CASTEP 20.1 from code version af48c487+ pr-geom-scf-spinfix Tue Jun 2 15:39:59 2020 +0100
REM Functional Perdew Burke Ernzerhof Relativity Koelling-Harmon Dispersion off
REM Cut-off 340.0000 eV Grid scale 1.7500 Gmax 16.5316 1/A FBSC none
REM MP grid 2 3 3 Offset 0.000 0.000 0.000 No. kpts 9 Spacing 0.07
REM Total runtime: 52696.8 s
REM Overall efficiency: 80.1667 %
REM
REM
REM
REM compiler GCC version 4.9.2
REM options -cpp -iprefix /lustre/shared/ucl/apps/gcc/4.9.2/bin/../lib/gcc/x86_64-unknown-linux-gnu/4.9.2/ -mtune=corei7 -march=x86-64 -g -Og
REM COMMAND_LINE
REM seed 22640179 366269851 -1074549973 779855534 -2075515112 -808604129 1315903669 -1774577895 -992271237 1250580665 -586064267 1089466793
REM
REM S 3|1.8|5|6|7|30:31:32(qc=5)
REM O 2|1.5|12|13|15|20:21(qc=5)
REM Li 1|1.3|8|9|10|10U:20(qc=5)
REM Fe 3|2.2|2.0|1.0|8|9|10|40:41:32(qc=5)
REM Fe d:4.0 
REM
CELL 1.54180   15.13835    5.50828    9.97389  104.87673  139.36721   90.00000
LATT -1
SFAC Li O  S  Fe 
Li     1 -0.0361530000000  0.1205850000000 -0.4151560000000 1.0  -0.05
Li     1 -0.3790040000000  0.1205850000000 -0.4151560000000 1.0  -0.05
Li     1  0.3891720000000  0.1145590000000  0.2420320000000 1.0   0.01
Li     1 -0.1471390000000  0.1145590000000  0.2420320000000 1.0   0.01
Li     1 -0.3024430000000 -0.3172850000000 -0.1165880000000 1.0  -0.01
Li     1  0.1858550000000 -0.3172850000000 -0.1165880000000 1.0  -0.01
Li     1 -0.1615800000000 -0.4340600000000  0.2890270000000 1.0  -0.01
Li     1 -0.5493930000000 -0.4340600000000  0.2890270000000 1.0  -0.01
Li     1  0.2172110000000  0.6464360000000  0.1613640000000 1.0  -0.01
Li     1 -0.0558470000000  0.6464360000000  0.1613640000000 1.0  -0.01
O      2 -0.2901490000000 -0.0768200000000 -0.2225510000000 1.0   0.05
O      2  0.0675980000000 -0.0768200000000 -0.2225510000000 1.0   0.05
O      2  0.5654710000000 -0.6287250000000  0.4611710000000 1.0   0.13
O      2 -0.1043000000000 -0.6287250000000  0.4611710000000 1.0   0.13
O      2 -0.1483620000000 -0.2202450000000  0.1916000000000 1.0   0.01
O      2  0.3399620000000 -0.2202450000000  0.1916000000000 1.0   0.01
S      3  0.1885290000000  0.2493080000000 -0.0396380000000 1.0   0.03
S      3 -0.2281660000000  0.2493080000000 -0.0396380000000 1.0   0.03
Fe     4  0.7370950000000  0.6336160000000 -0.3503220000000 1.0   3.86
Fe     4 -0.0874170000000  0.6336160000000 -0.3503220000000 1.0   3.86
END
