TITL LFSO-Li5FeSO3-201026-211539-69dc27 0.1406 496.526162 -6.95768926E+003 8.26128 8.52480 20 (Pm) n - 1
REM
REM Run started: Tue, 27 Oct 2020 00:54:38 +0000 in /scratch/scratch/uccabz1/launch_tmp/launcher_2020-10-26-21-15-37-807242
REM CASTEP 19.11| from code version Version unavailable
REM Functional Perdew Burke Ernzerhof Relativity Koelling-Harmon Dispersion off
REM Cut-off 340.0000 eV Grid scale 1.7500 Gmax 16.5316 1/A FBSC none
REM MP grid 5 3 1 Offset 0.000 0.000 0.000 No. kpts 8 Spacing 0.07
REM Total runtime: 19222.7 s
REM Overall efficiency: 73.4167 %
REM
REM
REM
REM compiler GCC version 4.9.2
REM options -cpp -iprefix /scratch/UCL/applications/gcc/4.9.2/bin/../lib/gcc/x86_64-unknown-linux-gnu/4.9.2/ -mtune=corei7 -march=x86-64 -g -O2
REM COMMAND_LINE
REM seed 1824828860 -1791564916 65577290 -389971631 -1692940163 -1007522354 -1292160881 458586173 775759782 -2116942662 176366007 505535484
REM
REM S 3|1.8|5|6|7|30:31:32(qc=5)
REM O 2|1.5|12|13|15|20:21(qc=5)
REM Li 1|1.3|8|9|10|10U:20(qc=5)
REM Fe 3|2.2|2.0|1.0|8|9|10|40:41:32(qc=5)
REM Fe d:4.0 
REM
CELL 1.54180    2.99348    6.61088   25.09103   90.00000   90.00000   89.58706
LATT -1
SFAC Li O  S  Fe 
Li     1  0.4675240000000  0.2431270000000  0.2670650000000 1.0  -0.03
Li     1  0.4675240000000  0.2431270000000 -0.2670650000000 1.0  -0.03
Li     1 -0.5336710000000 -0.4241010000000  0.1659060000000 1.0  -0.03
Li     1 -0.5336710000000 -0.4241010000000 -0.1659060000000 1.0  -0.03
Li     1  0.4639710000000 -0.0529170000000  0.3092600000000 1.0  -0.05
Li     1  0.4639710000000 -0.0529170000000 -0.3092600000000 1.0  -0.05
Li     1 -0.0336330000000 -0.0381320000000  0.2158310000000 1.0   0.01
Li     1 -0.0336330000000 -0.0381320000000 -0.2158310000000 1.0   0.01
Li     1 -0.0352790000000  0.3137580000000  0.3426410000000 1.0   0.01
Li     1 -0.0352790000000  0.3137580000000 -0.3426410000000 1.0   0.01
O      2  0.4341650000000 -0.2452810000000 -0.2315390000000 1.0   0.06
O      2  0.4341650000000 -0.2452810000000  0.2315390000000 1.0   0.06
O      2  0.4335340000000  0.4860170000000  0.3153540000000 1.0   0.09
O      2  0.4335340000000  0.4860170000000 -0.3153540000000 1.0   0.09
O      2 -0.0393770000000  0.0950730000000 -0.2966750000000 1.0   0.03
O      2 -0.0393770000000  0.0950730000000  0.2966750000000 1.0   0.03
S      3 -0.0393410000000  0.3022750000000  0.1731180000000 1.0   0.31
S      3 -0.0393410000000  0.3022750000000 -0.1731180000000 1.0   0.31
Fe     4 -0.0765270000000 -0.3836190000000 -0.2744910000000 1.0   3.73
Fe     4 -0.0765270000000 -0.3836190000000  0.2744910000000 1.0   3.73
END
