TITL LFSO-Li5FeSO3-201026-112457-26e5e1 0.0243 129.982335 -3.47518325E+003 5.00000 5.14923 10 (Pmm2) n - 1
REM
REM Run started: Mon, 26 Oct 2020 11:48:30 +0000 in /lustre/scratch/uccabz1/launch_tmp/launcher_2020-10-26-11-24-55-764077
REM CASTEP 20.1 from code version af48c487+ pr-geom-scf-spinfix Tue Jun 2 15:39:59 2020 +0100
REM Functional Perdew Burke Ernzerhof Relativity Koelling-Harmon Dispersion off
REM Cut-off 340.0000 eV Grid scale 1.7500 Gmax 16.5316 1/A FBSC none
REM MP grid 4 4 3 Offset 0.000 0.000 0.000 No. kpts 8 Spacing 0.07
REM Total runtime: 1519.81 s
REM Overall efficiency: 75.375 %
REM
REM
REM
REM compiler GCC version 4.9.2
REM options -cpp -iprefix /lustre/shared/ucl/apps/gcc/4.9.2/bin/../lib/gcc/x86_64-unknown-linux-gnu/4.9.2/ -mtune=corei7 -march=x86-64 -g -Og
REM COMMAND_LINE
REM seed -1351124620 -484756268 -1435498053 -992602487 -1694073974 490072277 839924249 -1277759204 -649460506 1260172042 1304080659 -2055623100
REM
REM S 3|1.8|5|6|7|30:31:32(qc=5)
REM O 2|1.5|12|13|15|20:21(qc=5)
REM Li 1|1.3|8|9|10|10U:20(qc=5)
REM Fe 3|2.2|2.0|1.0|8|9|10|40:41:32(qc=5)
REM Fe d:4.0 
REM
CELL 1.54180    3.92802    4.68804    7.05862   90.00000   90.00000   90.00000
LATT -1
SFAC Li O  S  Fe 
Li     1  0.1666970000000  0.2284970000000 -0.2861770000000 1.0  -0.04
Li     1  0.1666970000000 -0.2284970000000  0.2861770000000 1.0  -0.04
Li     1  0.1666970000000  0.2284970000000  0.2861770000000 1.0  -0.04
Li     1  0.1666970000000 -0.2284970000000 -0.2861770000000 1.0  -0.04
Li     1  0.6799500000000 -0.5000000000000  0.0000000000000 1.0  -0.01
O      2  0.6914390000000  0.0000000000000 -0.3198550000000 1.0   0.60
O      2  0.6914390000000  0.0000000000000  0.3198550000000 1.0   0.60
O      2 -0.8265340000000  0.5000000000000  0.5000000000000 1.0   0.09
S      3  0.1800230000000  0.5000000000000  0.0000000000000 1.0   0.06
Fe     4 -0.3280980000000 -0.5000000000000  0.5000000000000 1.0   3.83
END
