TITL LFSO-Li6FeS3O-201027-105248-5a6d7e -0.0073 708.620168 -6.82129200E+003 8.00000 8.26672 22 (C2221) n - 1
REM
REM Run started: Tue, 27 Oct 2020 17:19:57 +0000 in /lustre/scratch/uccabz1/launch_tmp/launcher_2020-10-27-10-52-46-407485
REM CASTEP 20.1 from code version af48c487+ pr-geom-scf-spinfix Tue Jun 2 15:39:59 2020 +0100
REM Functional Perdew Burke Ernzerhof Relativity Koelling-Harmon Dispersion off
REM Cut-off 340.0000 eV Grid scale 1.7500 Gmax 16.5316 1/A FBSC none
REM MP grid 4 2 2 Offset 0.000 0.000 0.000 No. kpts 4 Spacing 0.07
REM Total runtime: 27498.4 s
REM Overall efficiency: 80.5 %
REM
REM
REM
REM compiler GCC version 4.9.2
REM options -cpp -iprefix /lustre/shared/ucl/apps/gcc/4.9.2/bin/../lib/gcc/x86_64-unknown-linux-gnu/4.9.2/ -mtune=corei7 -march=x86-64 -g -Og
REM COMMAND_LINE
REM seed 1871286110 -2142192628 -975479708 1479877570 1786203286 -28639 -1388535073 695571698 18980998 -2102987262 1047396020 -602822789
REM
REM S 3|1.8|5|6|7|30:31:32(qc=5)
REM O 2|1.5|12|13|15|20:21(qc=5)
REM Li 1|1.3|8|9|10|10U:20(qc=5)
REM Fe 3|2.2|2.0|1.0|8|9|10|40:41:32(qc=5)
REM Fe d:4.0 
REM
CELL 1.54180    3.77292   13.74123   13.74123   84.08863   90.00000   90.00000
LATT -1
SFAC Li O  S  Fe 
Li     1  0.5233790000000  0.2445280000000 -0.5408970000000 1.0  -0.03
Li     1  0.0233790000000 -0.2445280000000  0.5408970000000 1.0  -0.03
Li     1 -0.0233790000000  0.5408970000000 -0.2445280000000 1.0  -0.03
Li     1 -0.5233790000000 -0.5408970000000  0.2445280000000 1.0  -0.03
Li     1 -0.0225600000000 -0.5450010000000 -0.0469910000000 1.0   0.00
Li     1  0.4774400000000  0.5450010000000  0.0469910000000 1.0   0.00
Li     1 -0.4774400000000  0.0469910000000  0.5450010000000 1.0   0.00
Li     1  0.0225600000000 -0.0469910000000 -0.5450010000000 1.0   0.00
Li     1  0.0194890000000 -0.2758940000000 -0.1103570000000 1.0  -0.01
Li     1  0.5194890000000  0.2758940000000  0.1103570000000 1.0  -0.01
Li     1 -0.5194890000000  0.1103570000000  0.2758940000000 1.0  -0.01
Li     1 -0.0194890000000 -0.1103570000000 -0.2758940000000 1.0  -0.01
O      2  0.0000000000000 -0.3440240000000 -0.3440240000000 1.0   0.10
O      2  0.5000000000000  0.3440240000000  0.3440240000000 1.0   0.10
S      3  0.0271800000000  0.1299140000000 -0.5255810000000 1.0   0.01
S      3  0.5271800000000 -0.1299140000000  0.5255810000000 1.0   0.01
S      3 -0.5271800000000  0.5255810000000 -0.1299140000000 1.0   0.01
S      3 -0.0271800000000 -0.5255810000000  0.1299140000000 1.0   0.01
S      3  0.0000000000000  0.1874250000000  0.1874250000000 1.0   0.06
S      3  0.5000000000000 -0.1874250000000 -0.1874250000000 1.0   0.06
Fe     4  0.0000000000000  0.3080040000000  0.3080040000000 1.0   3.92
Fe     4 -0.5000000000000 -0.3080040000000 -0.3080040000000 1.0   3.92
END
