TITL LFSO-Li4Fe3S3O2-201028-193408-4e16f4 -0.0258 472.721424 -1.03447003E+004 24.0000 24.2916 24 (P3) n - 1
REM
REM Run started: Thu, 29 Oct 2020 02:02:42 +0000 in /scratch/scratch/uccabz1/launch_tmp/launcher_2020-10-28-19-34-07-067828
REM CASTEP 19.11| from code version Version unavailable
REM Functional Perdew Burke Ernzerhof Relativity Koelling-Harmon Dispersion off
REM Cut-off 340.0000 eV Grid scale 1.7500 Gmax 16.5316 1/A FBSC none
REM MP grid 3 2 2 Offset 0.000 0.000 0.000 No. kpts 6 Spacing 0.07
REM Total runtime: 25663.6 s
REM Overall efficiency: 94.5714 %
REM
REM
REM
REM compiler GCC version 4.9.2
REM options -cpp -iprefix /scratch/UCL/applications/gcc/4.9.2/bin/../lib/gcc/x86_64-unknown-linux-gnu/4.9.2/ -mtune=corei7 -march=x86-64 -g -O2
REM COMMAND_LINE
REM seed -1987478501 -442857306 2000274320 1800669327 680354636 1962922926 -1344315477 -113125068 959644865 -206367532 -2115958608 1350874024
REM
REM S 3|1.8|5|6|7|30:31:32(qc=5)
REM O 2|1.5|12|13|15|20:21(qc=5)
REM Li 1|1.3|8|9|10|10U:20(qc=5)
REM Fe 3|2.2|2.0|1.0|8|9|10|40:41:32(qc=5)
REM Fe d:4.0 
REM
CELL 1.54180    7.10421    8.76555    8.76555  120.00000   90.00000   90.00000
LATT -1
SFAC Li O  S  Fe 
Li     1 -0.1886960000000 -0.3941710000000  0.1058490000000 1.0   0.04
Li     1 -0.1886960000000  0.5000200000000  0.3941710000000 1.0   0.04
Li     1 -0.1886960000000 -0.1058490000000 -0.5000200000000 1.0   0.04
Li     1 -0.2634020000000  0.1905950000000  0.0006950000000 1.0  -0.00
Li     1 -0.2634020000000 -0.1899000000000 -0.1905950000000 1.0  -0.00
Li     1 -0.2634020000000 -0.0006950000000  0.1899000000000 1.0  -0.00
Li     1  0.4650170000000 -0.3333330000000  0.3333330000000 1.0  -0.16
Li     1  0.5007370000000  0.3333330000000 -0.3333330000000 1.0  -0.04
O      2  0.2902620000000  0.0210460000000 -0.2263430000000 1.0   0.22
O      2  0.2902620000000 -0.2473890000000 -0.0210460000000 1.0   0.22
O      2  0.2902620000000  0.2263430000000  0.2473890000000 1.0   0.22
O      2 -0.3699990000000 -0.0000000000000  0.0000000000000 1.0   0.10
S      3 -0.4808220000000 -0.5529350000000  0.0106540000000 1.0   0.09
S      3 -0.4808220000000 -0.4364120000000  0.5529350000000 1.0   0.09
S      3 -0.4808220000000 -0.0106540000000  0.4364120000000 1.0   0.09
S      3  0.0133450000000 -0.1155460000000  0.2862080000000 1.0   0.09
S      3  0.0133450000000  0.4017540000000  0.1155460000000 1.0   0.09
S      3  0.0133450000000 -0.2862080000000 -0.4017540000000 1.0   0.09
Fe     4  0.3383290000000  0.2039600000000  0.0145100000000 1.0   3.80
Fe     4  0.3383290000000 -0.1894500000000 -0.2039600000000 1.0   3.80
Fe     4  0.3383290000000 -0.0145100000000  0.1894500000000 1.0   3.80
Fe     4  0.2078120000000 -0.0586870000000  0.5382880000000 1.0   3.80
Fe     4  0.2078120000000 -0.4030250000000  0.0586870000000 1.0   3.80
Fe     4  0.2078120000000 -0.5382880000000  0.4030250000000 1.0   3.80
END
