TITL LFSO-Li2Fe3S3O-201026-043727-a8084a -0.0382 209.420928 -4.33524370E+003 12.0000 12.1024 9 (R3) n - 1
REM
REM Run started: Mon, 26 Oct 2020 05:33:40 +0000 in /lustre/scratch/uccabz1/launch_tmp/launcher_2020-10-26-04-37-26-351890
REM CASTEP 20.1 from code version af48c487+ pr-geom-scf-spinfix Tue Jun 2 15:39:59 2020 +0100
REM Functional Perdew Burke Ernzerhof Relativity Koelling-Harmon Dispersion off
REM Cut-off 340.0000 eV Grid scale 1.7500 Gmax 16.5316 1/A FBSC none
REM MP grid 3 3 3 Offset 0.000 0.000 0.000 No. kpts 6 Spacing 0.07
REM Total runtime: 3589.71 s
REM Overall efficiency: 74.5 %
REM
REM
REM
REM compiler GCC version 4.9.2
REM options -cpp -iprefix /lustre/shared/ucl/apps/gcc/4.9.2/bin/../lib/gcc/x86_64-unknown-linux-gnu/4.9.2/ -mtune=corei7 -march=x86-64 -g -Og
REM COMMAND_LINE
REM seed -471449890 -1288482937 -1089607009 1954403247 -632420984 249505577 -1714718845 -1884375370 1474311335 -873131435 1445789491 -952048681
REM
REM S 3|1.8|5|6|7|30:31:32(qc=5)
REM O 2|1.5|12|13|15|20:21(qc=5)
REM Li 1|1.3|8|9|10|10U:20(qc=5)
REM Fe 3|2.2|2.0|1.0|8|9|10|40:41:32(qc=5)
REM Fe d:4.0 
REM
CELL 1.54180    6.12213    6.12213    6.12213   74.96111   74.96111   74.96111
LATT -1
SFAC Li O  S  Fe 
Li     1 -0.3007770000000 -0.3007770000000 -0.3007770000000 1.0  -0.02
Li     1  0.0908700000000  0.0908700000000  0.0908700000000 1.0  -0.09
O      2  0.2421750000000  0.2421750000000  0.2421750000000 1.0   0.12
S      3  0.3182890000000 -0.1988200000000 -0.1377740000000 1.0   0.14
S      3 -0.1988200000000 -0.1377740000000  0.3182890000000 1.0   0.14
S      3 -0.1377740000000  0.3182890000000 -0.1988200000000 1.0   0.14
Fe     4  0.0914730000000 -0.4216150000000  0.1637320000000 1.0   3.86
Fe     4 -0.4216150000000  0.1637320000000  0.0914730000000 1.0   3.86
Fe     4  0.1637320000000  0.0914730000000 -0.4216150000000 1.0   3.86
END
