TITL LFSO-Li2Fe3S2O2-201022-092659-b3c422 -0.0124 341.191203 -8.93530097E+003 21.9930 22.5332 18 (Pma2) n - 1
REM
REM Run started: Thu, 22 Oct 2020 11:41:46 +0100 in /scratch/scratch/uccabz1/launch_tmp/launcher_2020-10-22-08-26-57-481310
REM CASTEP 19.11| from code version Version unavailable
REM Functional Perdew Burke Ernzerhof Relativity Koelling-Harmon Dispersion off
REM Cut-off 340.0000 eV Grid scale 1.7500 Gmax 16.5316 1/A FBSC none
REM MP grid 3 3 2 Offset 0.000 0.000 0.000 No. kpts 4 Spacing 0.07
REM Total runtime: 9187.22 s
REM Overall efficiency: 80.1429 %
REM
REM
REM
REM compiler GCC version 4.9.2
REM options -cpp -iprefix /scratch/UCL/applications/gcc/4.9.2/bin/../lib/gcc/x86_64-unknown-linux-gnu/4.9.2/ -mtune=corei7 -march=x86-64 -g -O2
REM COMMAND_LINE
REM seed -24822457 901092921 1789690363 723426362 -923227201 -1339697733 751890986 -257296357 497458606 1335058635 -321314716 1991498194
REM
REM S 3|1.8|5|6|7|30:31:32(qc=5)
REM O 2|1.5|12|13|15|20:21(qc=5)
REM Li 1|1.3|8|9|10|10U:20(qc=5)
REM Fe 3|2.2|2.0|1.0|8|9|10|40:41:32(qc=5)
REM Fe d:4.0 
REM
CELL 1.54180    5.95604    5.07266   11.29287   90.00000   90.00000   90.00000
LATT -1
SFAC Li O  S  Fe 
Li     1 -0.2374830000000 -0.3842590000000 -0.0826210000000 1.0  -0.08
Li     1  0.2374830000000 -0.3842590000000  0.0826210000000 1.0  -0.08
Li     1  0.2374830000000 -0.3842590000000  0.4173790000000 1.0  -0.08
Li     1 -0.2374830000000 -0.3842590000000 -0.4173790000000 1.0  -0.08
O      2 -0.1764380000000  0.2791150000000 -0.1186790000000 1.0   0.18
O      2  0.1764380000000  0.2791150000000  0.1186790000000 1.0   0.18
O      2  0.1764380000000  0.2791150000000  0.3813210000000 1.0   0.18
O      2 -0.1764380000000  0.2791150000000 -0.3813210000000 1.0   0.18
S      3  0.4049290000000 -0.1644420000000 -0.3802720000000 1.0   0.05
S      3 -0.4049290000000 -0.1644420000000  0.3802720000000 1.0   0.05
S      3 -0.4049290000000 -0.1644420000000  0.1197280000000 1.0   0.05
S      3  0.4049290000000 -0.1644420000000 -0.1197280000000 1.0   0.05
Fe     4  0.0949690000000  0.1033770000000 -0.1163090000000 1.0   3.47
Fe     4 -0.0949690000000  0.1033770000000  0.1163090000000 1.0   3.47
Fe     4 -0.0949690000000  0.1033770000000  0.3836910000000 1.0   3.47
Fe     4  0.0949690000000  0.1033770000000 -0.3836910000000 1.0   3.47
Fe     4 -0.3571680000000  0.1207650000000 -0.2500000000000 1.0   3.76
Fe     4  0.3571680000000  0.1207650000000  0.2500000000000 1.0   3.76
END
