TITL LFSO-Li2Fe4S4O-201024-204933-61b434 -0.1117 521.974708 -1.09930579E+004 6.18047 30.4559 22 (R3) n - 1
REM
REM Run started: Sun, 25 Oct 2020 16:11:39 +0000 in /lustre/scratch/uccabz1/launch_tmp/launcher_2020-10-25-08-54-08-920476
REM CASTEP 20.1 from code version af48c487+ pr-geom-scf-spinfix Tue Jun 2 15:39:59 2020 +0100
REM Functional Perdew Burke Ernzerhof Relativity Koelling-Harmon Dispersion off
REM Cut-off 340.0000 eV Grid scale 1.7500 Gmax 16.5316 1/A FBSC none
REM MP grid 3 3 2 Offset 0.000 0.000 0.000 No. kpts 7 Spacing 0.07
REM Total runtime: 58298.4 s
REM Overall efficiency: 98.4167 %
REM
REM
REM
REM compiler GCC version 4.9.2
REM options -cpp -iprefix /lustre/shared/ucl/apps/gcc/4.9.2/bin/../lib/gcc/x86_64-unknown-linux-gnu/4.9.2/ -mtune=corei7 -march=x86-64 -g -Og
REM COMMAND_LINE
REM seed 450526054 964165301 687087399 -644630330 -1562989258 1419881160 1506397011 1886829885 -195300527 576395150 1625931100 1699468199
REM
REM S 3|1.8|5|6|7|30:31:32(qc=5)
REM O 2|1.5|12|13|15|20:21(qc=5)
REM Li 1|1.3|8|9|10|10U:20(qc=5)
REM Fe 3|2.2|2.0|1.0|8|9|10|40:41:32(qc=5)
REM Fe d:4.0 
REM
CELL 1.54180    7.99535    7.99535   10.49789   67.61629   67.61629   60.00000
LATT -1
SFAC Li O  S  Fe 
Li     1  0.4323950000000 -0.2077570000000  0.3089600000000 1.0  -0.02
Li     1  0.4664020000000  0.4323950000000  0.3089600000000 1.0  -0.02
Li     1 -0.2077570000000  0.4664020000000  0.3089600000000 1.0  -0.02
Li     1  0.0665020000000  0.0665020000000 -0.1995060000000 1.0   0.09
O      2  0.1309850000000  0.1309850000000 -0.3929540000000 1.0  -0.99
O      2 -0.4076140000000 -0.4076140000000  0.2228410000000 1.0   0.25
S      3  0.4008980000000 -0.3311490000000 -0.0385540000000 1.0   0.06
S      3 -0.0311940000000  0.4008980000000 -0.0385540000000 1.0   0.06
S      3 -0.3311490000000 -0.0311940000000 -0.0385540000000 1.0   0.06
S      3 -0.0772940000000  0.1362730000000  0.3359930000000 1.0   0.10
S      3 -0.3949720000000 -0.0772940000000  0.3359930000000 1.0   0.10
S      3  0.1362730000000 -0.3949720000000  0.3359930000000 1.0   0.10
S      3  0.4549650000000  0.4549650000000 -0.3648950000000 1.0   0.01
S      3 -0.2256810000000 -0.2256810000000 -0.3229580000000 1.0  -0.04
Fe     4  0.1036450000000 -0.4562080000000 -0.2535910000000 1.0  -3.70
Fe     4 -0.3938460000000  0.1036450000000 -0.2535910000000 1.0  -3.70
Fe     4 -0.4562080000000 -0.3938460000000 -0.2535910000000 1.0  -3.70
Fe     4 -0.3555900000000  0.0543850000000  0.4745120000000 1.0   3.33
Fe     4 -0.1733070000000 -0.3555900000000  0.4745120000000 1.0   3.33
Fe     4  0.0543850000000 -0.1733070000000  0.4745120000000 1.0   3.33
Fe     4 -0.0786930000000 -0.0786930000000  0.2360800000000 1.0   3.63
Fe     4 -0.3415210000000 -0.3415210000000  0.0245630000000 1.0   3.90
END
