TITL LFSO-Li2Fe3S3O-201026-123957-a28a39 0.0170 150.864534 -4.33611808E+003 12.0000 12.0935 9 (P-1) n - 1
REM
REM Run started: Mon, 26 Oct 2020 17:00:37 +0000 in /scratch/scratch/uccabz1/launch_tmp/launcher_2020-10-26-12-39-55-982258
REM CASTEP 19.11| from code version Version unavailable
REM Functional Perdew Burke Ernzerhof Relativity Koelling-Harmon Dispersion off
REM Cut-off 340.0000 eV Grid scale 1.7500 Gmax 16.5316 1/A FBSC none
REM MP grid 5 4 3 Offset 0.000 0.000 0.000 No. kpts 30 Spacing 0.07
REM Total runtime: 15885.7 s
REM Overall efficiency: 78.9167 %
REM
REM
REM
REM compiler GCC version 4.9.2
REM options -cpp -iprefix /scratch/UCL/applications/gcc/4.9.2/bin/../lib/gcc/x86_64-unknown-linux-gnu/4.9.2/ -mtune=corei7 -march=x86-64 -g -O2
REM COMMAND_LINE
REM seed -117918897 -5810456 74361473 1500699920 -1971255458 1389724485 741387542 -16206934 -46014641 1718975393 433002118 -1497250614
REM
REM S 3|1.8|5|6|7|30:31:32(qc=5)
REM O 2|1.5|12|13|15|20:21(qc=5)
REM Li 1|1.3|8|9|10|10U:20(qc=5)
REM Fe 3|2.2|2.0|1.0|8|9|10|40:41:32(qc=5)
REM Fe d:4.0 
REM
CELL 1.54180    3.79069    7.17817    9.54334   45.61864  105.93841   79.92034
LATT -1
SFAC Li O  S  Fe 
Li     1 -0.5168410000000  0.2182860000000  0.2048570000000 1.0  -0.04
Li     1  0.5168410000000 -0.2182860000000 -0.2048570000000 1.0  -0.04
O      2  0.5000000000000  0.0000000000000 -0.5000000000000 1.0   0.19
S      3 -0.1366590000000  0.2504530000000  0.0003290000000 1.0   0.13
S      3  0.1366590000000 -0.2504530000000 -0.0003290000000 1.0   0.13
S      3 -1.0000000000000  0.5000000000000  0.5000000000000 1.0   0.09
Fe     4 -0.5151040000000  0.3330220000000  0.4276050000000 1.0   3.85
Fe     4  0.5151040000000 -0.3330220000000 -0.4276050000000 1.0   3.85
Fe     4  0.5000000000000  0.0000000000000  0.0000000000000 1.0   3.83
END
