TITL LFSO-Li5FeSO3-201026-162028-4ce1df 0.1000 302.783830 -6.95492634E+003 6.00001 6.57191 20 (P21) n - 1
REM
REM Run started: Mon, 26 Oct 2020 19:26:59 +0000 in /lustre/scratch/uccabz1/launch_tmp/launcher_2020-10-26-16-20-26-848545
REM CASTEP 20.1 from code version af48c487+ pr-geom-scf-spinfix Tue Jun 2 15:39:59 2020 +0100
REM Functional Perdew Burke Ernzerhof Relativity Koelling-Harmon Dispersion off
REM Cut-off 340.0000 eV Grid scale 1.7500 Gmax 16.5316 1/A FBSC none
REM MP grid 4 3 2 Offset 0.000 0.000 0.000 No. kpts 8 Spacing 0.07
REM Total runtime: 12766.2 s
REM Overall efficiency: 77.2308 %
REM
REM
REM
REM compiler GCC version 4.9.2
REM options -cpp -iprefix /lustre/shared/ucl/apps/gcc/4.9.2/bin/../lib/gcc/x86_64-unknown-linux-gnu/4.9.2/ -mtune=corei7 -march=x86-64 -g -Og
REM COMMAND_LINE
REM seed 185893204 741024201 -467959987 -954688752 -1938531263 1460674341 -1164944448 -1220237802 446070965 -2081258628 828716798 -1882425002
REM
REM S 3|1.8|5|6|7|30:31:32(qc=5)
REM O 2|1.5|12|13|15|20:21(qc=5)
REM Li 1|1.3|8|9|10|10U:20(qc=5)
REM Fe 3|2.2|2.0|1.0|8|9|10|40:41:32(qc=5)
REM Fe d:4.0 
REM
CELL 1.54180    4.94605    4.70143   13.75304   90.00000  108.77800   90.00000
LATT -1
SFAC Li O  S  Fe 
Li     1  0.0978340000000 -0.5518130000000 -0.0614090000000 1.0  -0.00
Li     1 -0.0978340000000 -0.0518130000000  0.0614090000000 1.0  -0.00
Li     1  0.1694040000000  0.4212650000000 -0.3393110000000 1.0  -0.10
Li     1 -0.1694040000000 -0.0787350000000  0.3393110000000 1.0  -0.10
Li     1  0.4350380000000  0.0165730000000  0.4593070000000 1.0  -0.03
Li     1 -0.4350380000000 -0.4834270000000 -0.4593070000000 1.0  -0.03
Li     1 -0.2959580000000  0.0264120000000 -0.3139110000000 1.0  -0.06
Li     1  0.2959580000000 -0.4735880000000  0.3139110000000 1.0  -0.06
Li     1 -0.7829760000000  0.0487300000000  0.2453520000000 1.0   0.02
Li     1  0.7829760000000 -0.4512700000000 -0.2453520000000 1.0   0.02
O      2  0.1271950000000  0.1867920000000  0.3553240000000 1.0   0.03
O      2 -0.1271950000000 -0.3132080000000 -0.3553240000000 1.0   0.03
O      2 -0.1074530000000  0.2133670000000 -0.1746160000000 1.0  -0.00
O      2  0.1074530000000 -0.2866330000000  0.1746160000000 1.0  -0.00
O      2 -0.3727590000000 -0.3058640000000  0.4121210000000 1.0   0.04
O      2  0.3727590000000  0.1941360000000 -0.4121210000000 1.0   0.04
S      3 -0.2108970000000 -0.0849170000000 -0.1221130000000 1.0   0.00
S      3  0.2108970000000  0.4150830000000  0.1221130000000 1.0   0.00
Fe     4 -0.0903700000000  0.4280530000000 -0.5880180000000 1.0   3.10
Fe     4  0.0903700000000 -0.0719470000000  0.5880180000000 1.0   3.10
END
