TITL LFSO-Li2Fe4S3O2-201026-072341-d7ae2f -0.0798 412.282735 -1.12713817E+004 31.9997 32.2257 22 (P21) n - 1
REM
REM Run started: Mon, 26 Oct 2020 15:23:12 +0000 in /lustre/scratch/uccabz1/launch_tmp/launcher_2020-10-26-07-23-39-924637
REM CASTEP 20.1 from code version af48c487+ pr-geom-scf-spinfix Tue Jun 2 15:39:59 2020 +0100
REM Functional Perdew Burke Ernzerhof Relativity Koelling-Harmon Dispersion off
REM Cut-off 340.0000 eV Grid scale 1.7500 Gmax 16.5316 1/A FBSC none
REM MP grid 5 2 2 Offset 0.000 0.000 0.000 No. kpts 5 Spacing 0.07
REM Total runtime: 30871.7 s
REM Overall efficiency: 76.0833 %
REM
REM
REM
REM compiler GCC version 4.9.2
REM options -cpp -iprefix /lustre/shared/ucl/apps/gcc/4.9.2/bin/../lib/gcc/x86_64-unknown-linux-gnu/4.9.2/ -mtune=corei7 -march=x86-64 -g -Og
REM COMMAND_LINE
REM seed -2054357886 -1223832998 -1485846791 -1899904757 -1706377524 757536522 76798156 -982316804 217452234 1431502094 386338348 1776106111
REM
REM S 3|1.8|5|6|7|30:31:32(qc=5)
REM O 2|1.5|12|13|15|20:21(qc=5)
REM Li 1|1.3|8|9|10|10U:20(qc=5)
REM Fe 3|2.2|2.0|1.0|8|9|10|40:41:32(qc=5)
REM Fe d:4.0 
REM
CELL 1.54180    3.67447   12.29532   11.25928   90.00000   90.00000  125.85560
LATT -1
SFAC Li O  S  Fe 
Li     1 -0.0002680000000 -0.0001430000000 -0.1073080000000 1.0  -0.03
Li     1  0.0002680000000  0.0001430000000  0.3926920000000 1.0  -0.03
Li     1  0.5874010000000 -0.2391460000000 -0.2588230000000 1.0  -0.03
Li     1 -0.5874010000000  0.2391460000000  0.2411770000000 1.0  -0.03
O      2  0.5677300000000  0.0527300000000 -0.0223860000000 1.0   0.22
O      2 -0.5677300000000 -0.0527300000000 -0.5223860000000 1.0   0.22
O      2 -0.0715740000000 -0.0512660000000 -0.2753240000000 1.0   0.12
O      2  0.0715740000000  0.0512660000000  0.2246760000000 1.0   0.12
S      3  0.3121820000000 -0.3756420000000 -0.4631210000000 1.0   0.16
S      3 -0.3121820000000  0.3756420000000  0.0368790000000 1.0   0.16
S      3  0.0092660000000  0.3120860000000 -0.2636870000000 1.0   0.14
S      3 -0.0092660000000 -0.3120860000000  0.2363130000000 1.0   0.14
S      3 -0.1116970000000 -0.3417260000000 -0.1495140000000 1.0   0.15
S      3  0.1116970000000  0.3417260000000  0.3504860000000 1.0   0.15
Fe     4 -0.1955020000000  0.4555960000000 -0.1918630000000 1.0   3.79
Fe     4  0.1955020000000 -0.4555960000000  0.3081370000000 1.0   3.79
Fe     4 -0.1408290000000 -0.4033740000000  0.0441940000000 1.0   3.81
Fe     4  0.1408290000000  0.4033740000000 -0.4558060000000 1.0   3.81
Fe     4 -0.4720470000000  0.0297630000000  0.1548880000000 1.0   3.87
Fe     4  0.4720470000000 -0.0297630000000 -0.3451120000000 1.0   3.87
Fe     4  0.0624480000000 -0.2421090000000  0.4571700000000 1.0   3.79
Fe     4 -0.0624480000000  0.2421090000000 -0.0428300000000 1.0   3.79
END
