TITL LFSO-Li5FeSO3-201026-014457-999ea2 -0.0304 273.454544 -6.95544717E+003 6.30040 6.80793 20 (P2/c) n - 1
REM
REM Run started: Mon, 26 Oct 2020 02:55:14 +0000 in /scratch/scratch/uccabz1/launch_tmp/launcher_2020-10-26-01-44-55-546808
REM CASTEP 19.11| from code version Version unavailable
REM Functional Perdew Burke Ernzerhof Relativity Koelling-Harmon Dispersion off
REM Cut-off 340.0000 eV Grid scale 1.7500 Gmax 16.5316 1/A FBSC none
REM MP grid 3 3 3 Offset 0.000 0.000 0.000 No. kpts 10 Spacing 0.07
REM Total runtime: 5133.77 s
REM Overall efficiency: 71.5 %
REM
REM
REM
REM compiler GCC version 4.9.2
REM options -cpp -iprefix /scratch/UCL/applications/gcc/4.9.2/bin/../lib/gcc/x86_64-unknown-linux-gnu/4.9.2/ -mtune=corei7 -march=x86-64 -g -O2
REM COMMAND_LINE
REM seed 233268684 -826240675 -138852527 -1296882303 -605845374 -1231724465 2067379622 -1598822436 267625872 -636745004 320891586 -1350856038
REM
REM S 3|1.8|5|6|7|30:31:32(qc=5)
REM O 2|1.5|12|13|15|20:21(qc=5)
REM Li 1|1.3|8|9|10|10U:20(qc=5)
REM Fe 3|2.2|2.0|1.0|8|9|10|40:41:32(qc=5)
REM Fe d:4.0 
REM
CELL 1.54180    9.01259    8.41920    5.68521   90.00000   90.00000  140.66187
LATT -1
SFAC Li O  S  Fe 
Li     1 -0.1489410000000 -0.4328980000000  0.1079280000000 1.0  -0.07
Li     1 -0.3510590000000 -0.0671020000000  0.1079280000000 1.0  -0.07
Li     1  0.1489410000000  0.4328980000000 -0.1079280000000 1.0  -0.07
Li     1  0.3510590000000  0.0671020000000 -0.1079280000000 1.0  -0.07
Li     1  0.0011120000000  0.3491190000000  0.3644890000000 1.0   0.02
Li     1 -0.5011120000000  0.1508810000000  0.3644890000000 1.0   0.02
Li     1 -0.0011120000000 -0.3491190000000 -0.3644890000000 1.0   0.02
Li     1  0.5011120000000 -0.1508810000000 -0.3644890000000 1.0   0.02
Li     1 -0.0000000000000 -0.0000000000000  0.5000000000000 1.0  -0.02
Li     1 -0.5000000000000  0.5000000000000 -0.5000000000000 1.0  -0.02
O      2  0.0706920000000 -0.0817520000000 -0.2479300000000 1.0   0.03
O      2  0.4293080000000 -0.4182480000000 -0.2479300000000 1.0   0.03
O      2 -0.0706920000000  0.0817520000000  0.2479300000000 1.0   0.03
O      2 -0.4293080000000  0.4182480000000  0.2479300000000 1.0   0.03
O      2  0.2500000000000 -0.2500000000000  0.4870600000000 1.0  -0.00
O      2 -0.2500000000000  0.2500000000000 -0.4870600000000 1.0  -0.00
S      3 -0.2500000000000  0.2500000000000 -0.1787730000000 1.0  -0.00
S      3  0.2500000000000 -0.2500000000000  0.1787730000000 1.0  -0.00
Fe     4 -0.0000000000000 -0.0000000000000  0.0000000000000 1.0   3.21
Fe     4 -0.5000000000000  0.5000000000000  0.0000000000000 1.0   3.21
END
