TITL LFSO-LiFe3S4O-201028-161509-41c613 0.0594 308.214403 -8.87699454E+003 -22.0003 22.6367 18 (P3) n - 1
REM
REM Run started: Wed, 28 Oct 2020 23:47:22 +0000 in /lustre/scratch/uccabz1/launch_tmp/launcher_2020-10-28-16-15-07-213396
REM CASTEP 20.1 from code version af48c487+ pr-geom-scf-spinfix Tue Jun 2 15:39:59 2020 +0100
REM Functional Perdew Burke Ernzerhof Relativity Koelling-Harmon Dispersion off
REM Cut-off 340.0000 eV Grid scale 1.7500 Gmax 16.5316 1/A FBSC none
REM MP grid 3 3 3 Offset 0.000 0.000 0.000 No. kpts 8 Spacing 0.07
REM Total runtime: 27343.5 s
REM Overall efficiency: 84.3333 %
REM
REM
REM
REM compiler GCC version 4.9.2
REM options -cpp -iprefix /lustre/shared/ucl/apps/gcc/4.9.2/bin/../lib/gcc/x86_64-unknown-linux-gnu/4.9.2/ -mtune=corei7 -march=x86-64 -g -Og
REM COMMAND_LINE
REM seed -1605204396 1768746663 378185392 1607727771 -313820244 -30960109 1499332668 -1979339481 -1098943071 -483643732 699994978 972021620
REM
REM S 3|1.8|5|6|7|30:31:32(qc=5)
REM O 2|1.5|12|13|15|20:21(qc=5)
REM Li 1|1.3|8|9|10|10U:20(qc=5)
REM Fe 3|2.2|2.0|1.0|8|9|10|40:41:32(qc=5)
REM Fe d:4.0 
REM
CELL 1.54180    7.40305    7.40305    6.49384   90.00000   90.00000  120.00000
LATT -1
SFAC Li O  S  Fe 
Li     1 -0.3333330000000  0.3333330000000 -0.7084920000000 1.0   0.01
Li     1 -0.3333330000000  0.3333330000000 -0.2612140000000 1.0   0.01
O      2  0.3333330000000 -0.3333330000000 -0.2932980000000 1.0  -0.02
O      2  0.0000000000000 -0.0000000000000 -0.0731410000000 1.0  -0.02
S      3 -0.4570660000000  0.0020650000000  0.0615040000000 1.0  -0.04
S      3  0.4591320000000  0.4570660000000  0.0615040000000 1.0  -0.04
S      3 -0.0020650000000 -0.4591320000000  0.0615040000000 1.0  -0.04
S      3  0.3304720000000  0.1121830000000  0.5538310000000 1.0  -0.01
S      3 -0.2182890000000 -0.3304720000000  0.5538310000000 1.0  -0.01
S      3 -0.1121830000000  0.2182890000000  0.5538310000000 1.0  -0.01
S      3  0.0000000000000 -0.0000000000000  0.1808380000000 1.0   0.11
S      3  0.3333330000000 -0.3333330000000  0.4544510000000 1.0   0.10
Fe     4  0.1912080000000 -0.1507770000000 -0.1687080000000 1.0  -3.85
Fe     4 -0.3419850000000 -0.1912080000000 -0.1687080000000 1.0  -3.85
Fe     4  0.1507770000000  0.3419850000000 -0.1687080000000 1.0  -3.85
Fe     4  0.1729170000000  0.3417010000000  0.3084450000000 1.0  -3.50
Fe     4  0.1687840000000 -0.1729170000000  0.3084450000000 1.0  -3.50
Fe     4 -0.3417010000000 -0.1687840000000  0.3084450000000 1.0  -3.50
END
