TITL LFSO-Li2Fe3S2O2-201024-034711-0d5b12 0.0248 329.822628 -4.45950543E+003 -6.03631 12.4128 9 (P-6) n - 1
REM
REM Run started: Sat, 24 Oct 2020 07:19:51 +0100 in /lustre/scratch/uccabz1/launch_tmp/launcher_2020-10-24-02-47-09-846580
REM CASTEP 20.1 from code version af48c487+ pr-geom-scf-spinfix Tue Jun 2 15:39:59 2020 +0100
REM Functional Perdew Burke Ernzerhof Relativity Koelling-Harmon Dispersion off
REM Cut-off 340.0000 eV Grid scale 1.7500 Gmax 16.5316 1/A FBSC none
REM MP grid 4 4 1 Offset 0.000 0.000 0.000 No. kpts 8 Spacing 0.07
REM Total runtime: 14330.7 s
REM Overall efficiency: 89.2727 %
REM
REM
REM
REM compiler GCC version 4.9.2
REM options -cpp -iprefix /lustre/shared/ucl/apps/gcc/4.9.2/bin/../lib/gcc/x86_64-unknown-linux-gnu/4.9.2/ -mtune=corei7 -march=x86-64 -g -Og
REM COMMAND_LINE
REM seed -1388270478 1811907175 -151974333 947249038 -556960880 937252453 -2117603880 -1353965977 -133505358 -1433797540 1508764855 1502545090
REM
REM S 3|1.8|5|6|7|30:31:32(qc=5)
REM O 2|1.5|12|13|15|20:21(qc=5)
REM Li 1|1.3|8|9|10|10U:20(qc=5)
REM Fe 3|2.2|2.0|1.0|8|9|10|40:41:32(qc=5)
REM Fe d:4.0 
REM
CELL 1.54180    4.63528    4.63528   17.72546   90.00000   90.00000  120.00000
LATT -1
SFAC Li O  S  Fe 
Li     1  0.0000000000000 -0.0000000000000  0.0709110000000 1.0  -0.02
Li     1  0.0000000000000 -0.0000000000000  0.4229180000000 1.0  -0.02
O      2  0.0000000000000 -0.0000000000000 -0.0316200000000 1.0   1.52
O      2  0.0000000000000 -0.0000000000000 -0.4745500000000 1.0   1.52
S      3  0.3333330000000 -0.3333330000000  0.1417960000000 1.0  -0.02
S      3  0.3333330000000 -0.3333330000000  0.3520330000000 1.0  -0.02
Fe     4  0.3234340000000 -0.0176330000000  0.2469150000000 1.0  -3.00
Fe     4 -0.3410670000000 -0.3234340000000  0.2469150000000 1.0  -3.00
Fe     4  0.0176330000000  0.3410670000000  0.2469150000000 1.0  -3.00
END
