TITL LFSO-Li5FeS2O2-201027-001937-054f17 -0.4012 167.457185 -3.34527951E+003 3.00000 3.59489 10 (Cm) n - 1
REM
REM Run started: Tue, 27 Oct 2020 10:39:57 +0000 in /lustre/scratch/uccabz1/launch_tmp/launcher_2020-10-27-00-19-35-919816
REM CASTEP 20.1 from code version af48c487+ pr-geom-scf-spinfix Tue Jun 2 15:39:59 2020 +0100
REM Functional Perdew Burke Ernzerhof Relativity Koelling-Harmon Dispersion off
REM Cut-off 340.0000 eV Grid scale 1.7500 Gmax 16.5316 1/A FBSC none
REM MP grid 3 4 6 Offset 0.000 0.000 0.000 No. kpts 36 Spacing 0.07
REM Total runtime: 16048.9 s
REM Overall efficiency: 93.9231 %
REM
REM
REM
REM compiler GCC version 4.9.2
REM options -cpp -iprefix /lustre/shared/ucl/apps/gcc/4.9.2/bin/../lib/gcc/x86_64-unknown-linux-gnu/4.9.2/ -mtune=corei7 -march=x86-64 -g -Og
REM COMMAND_LINE
REM seed 865509555 -1299952712 -1368529669 -971314384 -363425123 1857207950 2048515188 303698608 1971693423 -1374265154 540891041 -1162224080
REM
REM S 3|1.8|5|6|7|30:31:32(qc=5)
REM O 2|1.5|12|13|15|20:21(qc=5)
REM Li 1|1.3|8|9|10|10U:20(qc=5)
REM Fe 3|2.2|2.0|1.0|8|9|10|40:41:32(qc=5)
REM Fe d:4.0 
REM
CELL 1.54180    6.39987   11.50347    6.39239  154.12899  104.62886   90.00000
LATT -1
SFAC Li O  S  Fe 
Li     1  0.1344740000000 -0.3277930000000 -0.0954220000000 1.0  -0.02
Li     1  0.1344740000000  0.2323710000000 -0.0954220000000 1.0  -0.02
Li     1 -0.3572960000000 -0.3369480000000 -0.3078360000000 1.0  -0.00
Li     1 -0.3572960000000  0.0291130000000 -0.3078360000000 1.0  -0.00
Li     1 -0.3379840000000  0.2670360000000  0.5340720000000 1.0   0.01
O      2 -0.1429630000000  0.0913300000000  0.4140870000000 1.0   0.02
O      2 -0.1429630000000  0.3227570000000  0.4140870000000 1.0   0.02
S      3  0.3890070000000 -0.5323690000000 -0.3465440000000 1.0  -0.07
S      3  0.3890070000000  0.1858250000000 -0.3465440000000 1.0  -0.07
Fe     4  0.0784490000000  0.2443360000000  0.4886720000000 1.0   3.13
END
