TITL LFSO-Li2Fe4S4O-201024-125246-0e9407 -0.0959 342.035284 -5.49501439E+003 15.9033 16.3994 11 (Amm2) n - 1
REM
REM Run started: Sat, 24 Oct 2020 15:40:59 +0100 in /lustre/scratch/uccabz1/launch_tmp/launcher_2020-10-24-11-52-44-359151
REM CASTEP 20.1 from code version af48c487+ pr-geom-scf-spinfix Tue Jun 2 15:39:59 2020 +0100
REM Functional Perdew Burke Ernzerhof Relativity Koelling-Harmon Dispersion off
REM Cut-off 340.0000 eV Grid scale 1.7500 Gmax 16.5316 1/A FBSC none
REM MP grid 3 2 4 Offset 0.000 0.000 0.000 No. kpts 6 Spacing 0.07
REM Total runtime: 12210 s
REM Overall efficiency: 79.8333 %
REM
REM
REM
REM compiler GCC version 4.9.2
REM options -cpp -iprefix /lustre/shared/ucl/apps/gcc/4.9.2/bin/../lib/gcc/x86_64-unknown-linux-gnu/4.9.2/ -mtune=corei7 -march=x86-64 -g -Og
REM COMMAND_LINE
REM seed 1041562425 362992301 -888045342 -1644265238 2035683763 -953805186 653434092 -2094004370 -1671918484 -310355544 -1112154288 -1845059956
REM
REM S 3|1.8|5|6|7|30:31:32(qc=5)
REM O 2|1.5|12|13|15|20:21(qc=5)
REM Li 1|1.3|8|9|10|10U:20(qc=5)
REM Fe 3|2.2|2.0|1.0|8|9|10|40:41:32(qc=5)
REM Fe d:4.0 
REM
CELL 1.54180    9.09756    9.11085    6.14164   90.00000  137.78639   90.00000
LATT -1
SFAC Li O  S  Fe 
Li     1  0.6424590000000  0.0000000000000 -0.3416460000000 1.0  -0.05
Li     1  0.0158950000000  0.0000000000000 -0.3416460000000 1.0  -0.05
O      2 -0.2503830000000  0.0000000000000  0.4992340000000 1.0   1.00
S      3  0.1279890000000 -0.2628900000000 -0.2789880000000 1.0   0.09
S      3 -0.4069770000000  0.2628900000000 -0.2789880000000 1.0   0.09
S      3 -0.4069770000000 -0.2628900000000 -0.2789880000000 1.0   0.09
S      3  0.1279890000000  0.2628900000000 -0.2789880000000 1.0   0.09
Fe     4  0.4064330000000 -0.3486920000000  0.2297190000000 1.0   3.66
Fe     4 -0.1767140000000  0.3486920000000  0.2297190000000 1.0   3.66
Fe     4 -0.1767140000000 -0.3486920000000  0.2297190000000 1.0   3.66
Fe     4  0.4064330000000  0.3486920000000  0.2297190000000 1.0   3.66
END
