TITL LFSO-Li2Fe3S3O-201025-214524-745e13 0.2187 443.714509 -8.66927597E+003 24.0000 24.3677 18 (R3) n - 1
REM
REM Run started: Mon, 26 Oct 2020 07:23:40 +0000 in /scratch/scratch/uccabz1/launch_tmp/launcher_2020-10-25-21-45-22-651214
REM CASTEP 19.11| from code version Version unavailable
REM Functional Perdew Burke Ernzerhof Relativity Koelling-Harmon Dispersion off
REM Cut-off 340.0000 eV Grid scale 1.7500 Gmax 16.5316 1/A FBSC none
REM MP grid 2 2 2 Offset 0.000 0.000 0.000 No. kpts 2 Spacing 0.07
REM Total runtime: 37724.4 s
REM Overall efficiency: 87.6923 %
REM
REM
REM
REM compiler GCC version 4.9.2
REM options -cpp -iprefix /scratch/UCL/applications/gcc/4.9.2/bin/../lib/gcc/x86_64-unknown-linux-gnu/4.9.2/ -mtune=corei7 -march=x86-64 -g -O2
REM COMMAND_LINE
REM seed 2109258307 1530526300 -42209171 1404227323 -963397224 -488838937 -681918885 -668811852 -2029091106 2139294919 -1437701022 -36050684
REM
REM S 3|1.8|5|6|7|30:31:32(qc=5)
REM O 2|1.5|12|13|15|20:21(qc=5)
REM Li 1|1.3|8|9|10|10U:20(qc=5)
REM Fe 3|2.2|2.0|1.0|8|9|10|40:41:32(qc=5)
REM Fe d:4.0 
REM
CELL 1.54180    7.64918    7.64918    7.64918   85.55561   85.55561   85.55561
LATT -1
SFAC Li O  S  Fe 
Li     1 -0.0900360000000 -0.2150140000000 -0.3841720000000 1.0  -0.02
Li     1 -0.3841720000000 -0.0900360000000 -0.2150140000000 1.0  -0.02
Li     1 -0.2150140000000 -0.3841720000000 -0.0900360000000 1.0  -0.02
Li     1 -0.0415930000000 -0.0415930000000 -0.0415930000000 1.0  -0.18
O      2 -0.1611810000000 -0.1611810000000 -0.1611810000000 1.0   0.05
O      2 -0.4871790000000 -0.4871790000000 -0.4871790000000 1.0   0.21
S      3  0.3323350000000  0.1427910000000 -0.1340210000000 1.0   0.12
S      3 -0.1340210000000  0.3323350000000  0.1427910000000 1.0   0.12
S      3  0.1427910000000 -0.1340210000000  0.3323350000000 1.0   0.12
S      3 -0.3611240000000 -0.0436030000000 -0.5432670000000 1.0   0.16
S      3 -0.5432670000000 -0.3611240000000 -0.0436030000000 1.0   0.16
S      3 -0.0436030000000 -0.5432670000000 -0.3611240000000 1.0   0.16
Fe     4  0.4210230000000  0.4360930000000 -0.2510800000000 1.0   3.83
Fe     4 -0.2510800000000  0.4210230000000  0.4360930000000 1.0   3.83
Fe     4  0.4360930000000 -0.2510800000000  0.4210230000000 1.0   3.83
Fe     4  0.3073620000000 -0.1147020000000  0.0689000000000 1.0   3.88
Fe     4  0.0689000000000  0.3073620000000 -0.1147020000000 1.0   3.88
Fe     4 -0.1147020000000  0.0689000000000  0.3073620000000 1.0   3.88
END
