TITL LFSO-Li6FeSO3-201028-050659-af7172 0.0227 197.344112 -3.67865293E+003 4.00000 4.14835 11 (R3) n - 1
REM
REM Run started: Wed, 28 Oct 2020 05:17:36 +0000 in /lustre/scratch/uccabz1/launch_tmp/launcher_2020-10-28-05-06-57-992624
REM CASTEP 20.1 from code version af48c487+ pr-geom-scf-spinfix Tue Jun 2 15:39:59 2020 +0100
REM Functional Perdew Burke Ernzerhof Relativity Koelling-Harmon Dispersion off
REM Cut-off 340.0000 eV Grid scale 1.7500 Gmax 16.5316 1/A FBSC none
REM MP grid 3 3 3 Offset 0.000 0.000 0.000 No. kpts 6 Spacing 0.07
REM Total runtime: 1179.2 s
REM Overall efficiency: 89.4 %
REM
REM
REM
REM compiler GCC version 4.9.2
REM options -cpp -iprefix /lustre/shared/ucl/apps/gcc/4.9.2/bin/../lib/gcc/x86_64-unknown-linux-gnu/4.9.2/ -mtune=corei7 -march=x86-64 -g -Og
REM COMMAND_LINE
REM seed -1801358235 -1174446441 1883743297 -79565856 1136010760 -685866465 1176468636 748303662 351665625 1586750363 -1332446503 1260690293
REM
REM S 3|1.8|5|6|7|30:31:32(qc=5)
REM O 2|1.5|12|13|15|20:21(qc=5)
REM Li 1|1.3|8|9|10|10U:20(qc=5)
REM Fe 3|2.2|2.0|1.0|8|9|10|40:41:32(qc=5)
REM Fe d:4.0 
REM
CELL 1.54180    5.84180    5.84180    5.84180   94.57787   94.57786   94.57786
LATT -1
SFAC Li O  S  Fe 
Li     1 -0.2309490000000  0.2011450000000  0.1070880000000 1.0  -0.02
Li     1  0.2011450000000  0.1070880000000 -0.2309490000000 1.0  -0.02
Li     1  0.1070880000000 -0.2309490000000  0.2011450000000 1.0  -0.02
Li     1 -0.1734300000000  0.1699770000000  0.5482070000000 1.0  -0.00
Li     1  0.1699770000000  0.5482070000000 -0.1734300000000 1.0  -0.00
Li     1  0.5482070000000 -0.1734300000000  0.1699770000000 1.0  -0.00
O      2  0.1308250000000  0.3198510000000 -0.4200510000000 1.0   0.11
O      2  0.3198510000000 -0.4200510000000  0.1308250000000 1.0   0.11
O      2 -0.4200510000000  0.1308250000000  0.3198510000000 1.0   0.11
S      3 -0.1159640000000 -0.1159640000000 -0.1159640000000 1.0  -0.00
Fe     4  0.3539660000000  0.3539660000000  0.3539660000000 1.0   3.76
END
