TITL LFSO-Li6FeS3O-201027-141552-f152c0 -0.1956 802.181559 -6.82185229E+003 7.99950 8.56294 22 (P42) n - 1
REM
REM Run started: Tue, 27 Oct 2020 15:51:35 +0000 in /scratch/scratch/uccabz1/launch_tmp/launcher_2020-10-27-14-15-49-835644
REM CASTEP 19.11| from code version Version unavailable
REM Functional Perdew Burke Ernzerhof Relativity Koelling-Harmon Dispersion off
REM Cut-off 340.0000 eV Grid scale 1.7500 Gmax 16.5316 1/A FBSC none
REM MP grid 2 2 2 Offset 0.000 0.000 0.000 No. kpts 1 Spacing 0.07
REM Total runtime: 6902.27 s
REM Overall efficiency: 65.1538 %
REM
REM
REM
REM compiler GCC version 4.9.2
REM options -cpp -iprefix /scratch/UCL/applications/gcc/4.9.2/bin/../lib/gcc/x86_64-unknown-linux-gnu/4.9.2/ -mtune=corei7 -march=x86-64 -g -O2
REM COMMAND_LINE
REM seed -1137445514 -1995095928 -222031237 1963524727 -1127483145 -1183342218 1281808351 -558108991 1081386919 -1039753934 -434854194 1306175555
REM
REM S 3|1.8|5|6|7|30:31:32(qc=5)
REM O 2|1.5|12|13|15|20:21(qc=5)
REM Li 1|1.3|8|9|10|10U:20(qc=5)
REM Fe 3|2.2|2.0|1.0|8|9|10|40:41:32(qc=5)
REM Fe d:4.0 
REM
CELL 1.54180    8.41376    8.41376   11.33163   90.00000   90.00000   90.00000
LATT -1
SFAC Li O  S  Fe 
Li     1 -0.0496030000000  0.1731660000000 -0.2748830000000 1.0  -0.01
Li     1  0.0496030000000 -0.1731660000000 -0.2748830000000 1.0  -0.01
Li     1 -0.1731660000000 -0.0496030000000  0.2251170000000 1.0  -0.01
Li     1  0.1731660000000  0.0496030000000  0.2251170000000 1.0  -0.01
Li     1 -0.4252890000000 -0.3620780000000  0.0992890000000 1.0  -0.03
Li     1  0.4252890000000  0.3620780000000  0.0992890000000 1.0  -0.03
Li     1  0.3620780000000 -0.4252890000000  0.5992890000000 1.0  -0.03
Li     1 -0.3620780000000  0.4252890000000  0.5992890000000 1.0  -0.03
Li     1  0.1701600000000  0.0479170000000 -0.1238940000000 1.0  -0.01
Li     1 -0.1701600000000 -0.0479170000000 -0.1238940000000 1.0  -0.01
Li     1 -0.0479170000000  0.1701600000000 -0.6238940000000 1.0  -0.01
Li     1  0.0479170000000 -0.1701600000000 -0.6238940000000 1.0  -0.01
O      2  0.0000000000000  0.0000000000000 -0.2048440000000 1.0   0.00
O      2  0.0000000000000  0.0000000000000  0.2951560000000 1.0   0.00
S      3 -0.2857740000000 -0.1523700000000  0.0498030000000 1.0   0.04
S      3  0.2857740000000  0.1523700000000  0.0498030000000 1.0   0.04
S      3  0.1523700000000 -0.2857740000000 -0.4501970000000 1.0   0.04
S      3 -0.1523700000000  0.2857740000000 -0.4501970000000 1.0   0.04
S      3 -0.5000000000000  0.5000000000000 -0.1876760000000 1.0   0.53
S      3  0.5000000000000 -0.5000000000000  0.3123240000000 1.0   0.53
Fe     4  0.5000000000000  0.0000000000000  0.0500270000000 1.0   3.50
Fe     4  0.0000000000000  0.5000000000000 -0.4499730000000 1.0   3.50
END
