TITL LFSO-Li2Fe2S2O-201022-055332-df20f9 0.1391 180.238720 -3.16875380E+003 8.00000 8.06529 7 (Cm) n - 1
REM
REM Run started: Thu, 22 Oct 2020 07:45:24 +0100 in /scratch/scratch/uccabz1/launch_tmp/launcher_2020-10-22-04-53-30-186775
REM CASTEP 19.11| from code version Version unavailable
REM Functional Perdew Burke Ernzerhof Relativity Koelling-Harmon Dispersion off
REM Cut-off 340.0000 eV Grid scale 1.7500 Gmax 16.5316 1/A FBSC none
REM MP grid 4 3 3 Offset 0.000 0.000 0.000 No. kpts 12 Spacing 0.07
REM Total runtime: 7442.84 s
REM Overall efficiency: 76.0769 %
REM
REM
REM
REM compiler GCC version 4.9.2
REM options -cpp -iprefix /scratch/UCL/applications/gcc/4.9.2/bin/../lib/gcc/x86_64-unknown-linux-gnu/4.9.2/ -mtune=corei7 -march=x86-64 -g -O2
REM COMMAND_LINE
REM seed -37400850 1163558273 -977599617 1306025234 -118375397 67406883 -722134662 -1451351956 1456485358 1509443785 992338944 -716637582
REM
REM S 3|1.8|5|6|7|30:31:32(qc=5)
REM O 2|1.5|12|13|15|20:21(qc=5)
REM Li 1|1.3|8|9|10|10U:20(qc=5)
REM Fe 3|2.2|2.0|1.0|8|9|10|40:41:32(qc=5)
REM Fe d:4.0 
REM
CELL 1.54180    4.26768    6.68263    6.68263  106.03376   96.15387   96.15387
LATT -1
SFAC Li O  S  Fe 
Li     1  0.1532070000000  0.1769300000000 -0.5697310000000 1.0  -0.03
Li     1  0.1532070000000 -0.5697310000000  0.1769300000000 1.0  -0.03
O      2  0.3233870000000 -0.5258310000000 -0.5258310000000 1.0   0.17
S      3 -0.3300750000000 -0.4616510000000  0.0759160000000 1.0   0.10
S      3 -0.3300750000000  0.0759160000000 -0.4616510000000 1.0   0.10
Fe     4 -0.4264520000000  0.4222760000000 -0.2865810000000 1.0   3.83
Fe     4 -0.4264520000000 -0.2865810000000  0.4222760000000 1.0   3.83
END
