TITL LFSO-Li6FeS3O-201027-171130-6591fb 0.0131 398.964598 -6.82297734E+003 8.00000 8.29628 22 (P3) n - 1
REM
REM Run started: Wed, 28 Oct 2020 06:12:15 +0000 in /lustre/scratch/uccabz1/launch_tmp/launcher_2020-10-27-17-11-29-047887
REM CASTEP 20.1 from code version af48c487+ pr-geom-scf-spinfix Tue Jun 2 15:39:59 2020 +0100
REM Functional Perdew Burke Ernzerhof Relativity Koelling-Harmon Dispersion off
REM Cut-off 340.0000 eV Grid scale 1.7500 Gmax 16.5316 1/A FBSC none
REM MP grid 3 2 2 Offset 0.000 0.000 0.000 No. kpts 6 Spacing 0.07
REM Total runtime: 41651.5 s
REM Overall efficiency: 96 %
REM
REM
REM
REM compiler GCC version 4.9.2
REM options -cpp -iprefix /lustre/shared/ucl/apps/gcc/4.9.2/bin/../lib/gcc/x86_64-unknown-linux-gnu/4.9.2/ -mtune=corei7 -march=x86-64 -g -Og
REM COMMAND_LINE
REM seed 1026739 99975633 1791420379 -1185401377 96465947 1110652821 1149805333 -1683891184 1749324546 -1477874049 -157807874 -395648868
REM
REM S 3|1.8|5|6|7|30:31:32(qc=5)
REM O 2|1.5|12|13|15|20:21(qc=5)
REM Li 1|1.3|8|9|10|10U:20(qc=5)
REM Fe 3|2.2|2.0|1.0|8|9|10|40:41:32(qc=5)
REM Fe d:4.0 
REM
CELL 1.54180    5.65834    9.02314    9.02314  120.00000   90.00000   90.00000
LATT -1
SFAC Li O  S  Fe 
Li     1  0.3213230000000 -0.1215960000000  0.0865400000000 1.0   0.01
Li     1  0.3213230000000 -0.0865400000000 -0.2081360000000 1.0   0.01
Li     1  0.3213230000000  0.2081360000000  0.1215960000000 1.0   0.01
Li     1 -0.2832330000000  0.1160760000000 -0.0957840000000 1.0   0.01
Li     1 -0.2832330000000  0.0957840000000  0.2118600000000 1.0   0.01
Li     1 -0.2832330000000 -0.2118600000000 -0.1160760000000 1.0   0.01
Li     1  0.3847980000000  0.1429520000000 -0.4762550000000 1.0  -0.02
Li     1  0.3847980000000  0.4762550000000  0.6192070000000 1.0  -0.02
Li     1  0.3847980000000 -0.6192070000000 -0.1429520000000 1.0  -0.02
Li     1 -0.1201020000000 -0.0789560000000 -0.4760410000000 1.0  -0.04
Li     1 -0.1201020000000  0.4760410000000  0.3970850000000 1.0  -0.04
Li     1 -0.1201020000000 -0.3970850000000  0.0789560000000 1.0  -0.04
O      2 -0.4790310000000  0.0000000000000  0.0000000000000 1.0   0.02
O      2 -0.4322120000000  0.3333330000000 -0.3333330000000 1.0   0.08
S      3  0.0977520000000  0.1276950000000 -0.2455170000000 1.0   0.03
S      3  0.0977520000000  0.2455170000000  0.3732120000000 1.0   0.03
S      3  0.0977520000000 -0.3732120000000 -0.1276950000000 1.0   0.03
S      3 -0.3710160000000 -0.2866570000000 -0.4044450000000 1.0   0.11
S      3 -0.3710160000000  0.4044450000000  0.1177880000000 1.0   0.11
S      3 -0.3710160000000 -0.1177880000000  0.2866570000000 1.0   0.11
Fe     4 -0.0820690000000  0.3333330000000 -0.3333330000000 1.0   3.90
Fe     4  0.5286140000000 -0.3333330000000  0.3333330000000 1.0   3.69
END
