TITL LFSO-Li2FeSO-201024-213404-b86243 0.0088 135.823170 -4.00824981E+003 7.99999 8.10947 10 (P2/c) n - 1
REM
REM Run started: Sat, 24 Oct 2020 22:25:29 +0100 in /scratch/scratch/uccabz1/launch_tmp/launcher_2020-10-24-20-34-02-900527
REM CASTEP 19.11| from code version Version unavailable
REM Functional Perdew Burke Ernzerhof Relativity Koelling-Harmon Dispersion off
REM Cut-off 340.0000 eV Grid scale 1.7500 Gmax 16.5316 1/A FBSC none
REM MP grid 6 4 2 Offset 0.000 0.000 0.000 No. kpts 12 Spacing 0.07
REM Total runtime: 3125.14 s
REM Overall efficiency: 82.4286 %
REM
REM
REM
REM compiler GCC version 4.9.2
REM options -cpp -iprefix /scratch/UCL/applications/gcc/4.9.2/bin/../lib/gcc/x86_64-unknown-linux-gnu/4.9.2/ -mtune=corei7 -march=x86-64 -g -O2
REM COMMAND_LINE
REM seed -2032915275 -107869552 -232129025 -1771825645 476406616 1183519228 1401231716 356151950 -1876797945 2052387371 165797902 -1244816966
REM
REM S 3|1.8|5|6|7|30:31:32(qc=5)
REM O 2|1.5|12|13|15|20:21(qc=5)
REM Li 1|1.3|8|9|10|10U:20(qc=5)
REM Fe 3|2.2|2.0|1.0|8|9|10|40:41:32(qc=5)
REM Fe d:4.0 
REM
CELL 1.54180    3.82106    5.54177    8.97862   90.00000   90.00000  134.40725
LATT -1
SFAC Li O  S  Fe 
Li     1  0.1520710000000 -0.1869770000000  0.3211030000000 1.0  -0.09
Li     1  0.1520710000000  0.3130230000000 -0.3211030000000 1.0  -0.09
Li     1  0.1737010000000 -0.1867920000000 -0.0101100000000 1.0   0.02
Li     1  0.1737010000000  0.3132080000000  0.0101100000000 1.0   0.02
O      2 -0.3360510000000 -0.1845030000000  0.4186790000000 1.0   0.15
O      2 -0.3360510000000  0.3154970000000 -0.4186790000000 1.0   0.15
S      3 -0.3303050000000  0.3144770000000  0.1674380000000 1.0   0.07
S      3 -0.3303050000000 -0.1855230000000 -0.1674380000000 1.0   0.07
Fe     4  0.1513440000000  0.3159220000000  0.3831120000000 1.0   3.86
Fe     4  0.1513440000000 -0.1840780000000 -0.3831120000000 1.0   3.86
END
