TITL LFSO-Li2Fe2S2O-201022-054052-141cc9 0.1217 402.716684 -9.50937224E+003 -24.0000 24.2627 21 (P-1) n - 1
REM
REM Run started: Fri, 23 Oct 2020 04:47:42 +0100 in /lustre/scratch/uccabz1/launch_tmp/launcher_2020-10-23-00-28-44-832156
REM CASTEP 20.1 from code version af48c487+ pr-geom-scf-spinfix Tue Jun 2 15:39:59 2020 +0100
REM Functional Perdew Burke Ernzerhof Relativity Koelling-Harmon Dispersion off
REM Cut-off 340.0000 eV Grid scale 1.7500 Gmax 16.5316 1/A FBSC none
REM MP grid 4 2 2 Offset 0.000 0.000 0.000 No. kpts 8 Spacing 0.07
REM Total runtime: 82783.1 s
REM Overall efficiency: 96.0833 %
REM
REM
REM
REM compiler GCC version 4.9.2
REM options -cpp -iprefix /lustre/shared/ucl/apps/gcc/4.9.2/bin/../lib/gcc/x86_64-unknown-linux-gnu/4.9.2/ -mtune=corei7 -march=x86-64 -g -Og
REM COMMAND_LINE
REM seed -1351646511 -385602860 1079402447 -662848146 -2127618151 -367260087 -287827107 -719765861 1280178190 1480920554 1523054802 -1024236592
REM
REM S 3|1.8|5|6|7|30:31:32(qc=5)
REM O 2|1.5|12|13|15|20:21(qc=5)
REM Li 1|1.3|8|9|10|10U:20(qc=5)
REM Fe 3|2.2|2.0|1.0|8|9|10|40:41:32(qc=5)
REM Fe d:4.0 
REM
CELL 1.54180    3.78096    9.47076   11.59358   93.53215   99.91863   98.59975
LATT -1
SFAC Li O  S  Fe 
Li     1 -0.0233700000000  0.3880710000000 -0.1189680000000 1.0   0.00
Li     1  0.0233700000000 -0.3880710000000  0.1189680000000 1.0   0.00
Li     1 -0.0308210000000 -0.3417010000000 -0.2784590000000 1.0   0.01
Li     1  0.0308210000000  0.3417010000000  0.2784590000000 1.0   0.01
Li     1 -0.1800000000000  0.1191060000000 -0.3170550000000 1.0   0.04
Li     1  0.1800000000000 -0.1191060000000  0.3170550000000 1.0   0.04
O      2  0.1834150000000  0.0135990000000  0.2048330000000 1.0  -0.18
O      2 -0.1834150000000 -0.0135990000000 -0.2048330000000 1.0  -0.18
O      2 -0.5000000000000  0.0000000000000  0.0000000000000 1.0  -0.25
S      3  0.3406280000000 -0.3425890000000  0.5788820000000 1.0  -0.11
S      3 -0.3406280000000  0.3425890000000 -0.5788820000000 1.0  -0.11
S      3  0.6107780000000 -0.2836780000000  0.2634330000000 1.0  -0.08
S      3 -0.6107780000000  0.2836780000000 -0.2634330000000 1.0  -0.08
S      3  0.1438010000000 -0.3323470000000 -0.0766660000000 1.0  -0.09
S      3 -0.1438010000000  0.3323470000000  0.0766660000000 1.0  -0.09
Fe     4 -0.3540280000000 -0.0519140000000  0.1651010000000 1.0  -3.80
Fe     4  0.3540280000000  0.0519140000000 -0.1651010000000 1.0  -3.80
Fe     4  0.7295210000000  0.6079570000000  0.4423690000000 1.0  -3.85
Fe     4 -0.7295210000000 -0.6079570000000 -0.4423690000000 1.0  -3.85
Fe     4  0.2789630000000  0.1671440000000  0.0803470000000 1.0  -3.83
Fe     4 -0.2789630000000 -0.1671440000000 -0.0803470000000 1.0  -3.83
END
