TITL LFSO-Li2Fe4S3O2-201026-162835-3c21db 0.0090 583.947888 -1.12701840E+004 32.0000 32.3632 22 (P21212) n - 1
REM
REM Run started: Tue, 27 Oct 2020 00:26:27 +0000 in /lustre/scratch/uccabz1/launch_tmp/launcher_2020-10-26-16-28-33-519036
REM CASTEP 20.1 from code version af48c487+ pr-geom-scf-spinfix Tue Jun 2 15:39:59 2020 +0100
REM Functional Perdew Burke Ernzerhof Relativity Koelling-Harmon Dispersion off
REM Cut-off 340.0000 eV Grid scale 1.7500 Gmax 16.5316 1/A FBSC none
REM MP grid 2 3 2 Offset 0.000 0.000 0.000 No. kpts 2 Spacing 0.07
REM Total runtime: 30536.1 s
REM Overall efficiency: 79.9231 %
REM
REM
REM
REM compiler GCC version 4.9.2
REM options -cpp -iprefix /lustre/shared/ucl/apps/gcc/4.9.2/bin/../lib/gcc/x86_64-unknown-linux-gnu/4.9.2/ -mtune=corei7 -march=x86-64 -g -Og
REM COMMAND_LINE
REM seed -337970895 804390809 -1821717517 -1477325905 2084082002 -2001207958 -1622785229 -1031867527 156847164 1163199529 -1658661449 -1554297203
REM
REM S 3|1.8|5|6|7|30:31:32(qc=5)
REM O 2|1.5|12|13|15|20:21(qc=5)
REM Li 1|1.3|8|9|10|10U:20(qc=5)
REM Fe 3|2.2|2.0|1.0|8|9|10|40:41:32(qc=5)
REM Fe d:4.0 
REM
CELL 1.54180    8.54607    6.73972   10.13832   90.00000   90.00000   90.00000
LATT -1
SFAC Li O  S  Fe 
Li     1  0.1363960000000 -0.2107090000000  0.0630710000000 1.0  -0.00
Li     1  0.1363960000000  0.2107090000000 -0.0630710000000 1.0  -0.00
Li     1 -0.1363960000000 -0.2892910000000 -0.4369290000000 1.0  -0.00
Li     1 -0.1363960000000  0.2892910000000  0.4369290000000 1.0  -0.00
O      2  0.2417920000000  0.2469090000000 -0.2130440000000 1.0   0.26
O      2  0.2417920000000 -0.2469090000000  0.2130440000000 1.0   0.26
O      2 -0.2417920000000  0.2530910000000  0.2869560000000 1.0   0.26
O      2 -0.2417920000000 -0.2530910000000 -0.2869560000000 1.0   0.26
S      3 -0.3608560000000  0.2353280000000 -0.3185870000000 1.0   0.09
S      3 -0.3608560000000 -0.2353280000000  0.3185870000000 1.0   0.09
S      3  0.3608560000000  0.2646720000000  0.1814130000000 1.0   0.09
S      3  0.3608560000000 -0.2646720000000 -0.1814130000000 1.0   0.09
S      3 -0.0768470000000  0.0000000000000 -0.0000000000000 1.0   0.08
S      3  0.0768470000000  0.5000000000000  0.5000000000000 1.0   0.08
Fe     4 -0.4049800000000  0.4323530000000  0.2464230000000 1.0   3.81
Fe     4 -0.4049800000000 -0.4323530000000 -0.2464230000000 1.0   3.81
Fe     4  0.4049800000000  0.0676470000000 -0.2535770000000 1.0   3.81
Fe     4  0.4049800000000 -0.0676470000000  0.2535770000000 1.0   3.81
Fe     4  0.2285090000000  0.5101770000000  0.3056740000000 1.0   3.80
Fe     4  0.2285090000000 -0.5101770000000 -0.3056740000000 1.0   3.80
Fe     4 -0.2285090000000 -0.0101770000000 -0.1943260000000 1.0   3.80
Fe     4 -0.2285090000000  0.0101770000000  0.1943260000000 1.0   3.80
END
