TITL LFSO-Li2Fe3S3O-201025-103212-267402 -0.0187 232.099882 -4.33600242E+003 12.0000 12.1895 9 (R3) n - 1
REM
REM Run started: Sun, 25 Oct 2020 13:49:56 +0000 in /lustre/scratch/uccabz1/launch_tmp/launcher_2020-10-25-10-32-10-545856
REM CASTEP 20.1 from code version af48c487+ pr-geom-scf-spinfix Tue Jun 2 15:39:59 2020 +0100
REM Functional Perdew Burke Ernzerhof Relativity Koelling-Harmon Dispersion off
REM Cut-off 340.0000 eV Grid scale 1.7500 Gmax 16.5316 1/A FBSC none
REM MP grid 3 3 3 Offset 0.000 0.000 0.000 No. kpts 6 Spacing 0.07
REM Total runtime: 12693.1 s
REM Overall efficiency: 95.9231 %
REM
REM
REM
REM compiler GCC version 4.9.2
REM options -cpp -iprefix /lustre/shared/ucl/apps/gcc/4.9.2/bin/../lib/gcc/x86_64-unknown-linux-gnu/4.9.2/ -mtune=corei7 -march=x86-64 -g -Og
REM COMMAND_LINE
REM seed -7430594 -1256699081 1076167379 -730787390 -1831657109 1113342378 -138076679 1151383116 1282032085 -1313622513 1183942555 175927248
REM
REM S 3|1.8|5|6|7|30:31:32(qc=5)
REM O 2|1.5|12|13|15|20:21(qc=5)
REM Li 1|1.3|8|9|10|10U:20(qc=5)
REM Fe 3|2.2|2.0|1.0|8|9|10|40:41:32(qc=5)
REM Fe d:4.0 
REM
CELL 1.54180    6.15754    6.15754    6.15754   86.34711   86.34711   86.34711
LATT -1
SFAC Li O  S  Fe 
Li     1  0.0823210000000  0.0823210000000  0.0823210000000 1.0  -0.06
Li     1  0.4275140000000  0.4275140000000  0.4275140000000 1.0  -0.02
O      2 -0.0917630000000 -0.0917630000000 -0.0917630000000 1.0   0.19
S      3 -0.2228100000000  0.3288250000000  0.2213620000000 1.0   0.10
S      3  0.2213620000000 -0.2228100000000  0.3288250000000 1.0   0.10
S      3  0.3288250000000  0.2213620000000 -0.2228100000000 1.0   0.10
Fe     4 -0.3425250000000  0.1250620000000 -0.0682810000000 1.0   3.86
Fe     4 -0.0682810000000 -0.3425250000000  0.1250620000000 1.0   3.86
Fe     4  0.1250620000000 -0.0682810000000 -0.3425250000000 1.0   3.86
END
