TITL LFSO-Li2FeSO-201025-062250-30a626 0.0808 239.435561 -6.01252220E+003 12.0000 12.1664 15 (P-6) n - 1
REM
REM Run started: Sun, 25 Oct 2020 08:20:16 +0000 in /scratch/scratch/uccabz1/launch_tmp/launcher_2020-10-25-06-22-48-863446
REM CASTEP 19.11| from code version Version unavailable
REM Functional Perdew Burke Ernzerhof Relativity Koelling-Harmon Dispersion off
REM Cut-off 340.0000 eV Grid scale 1.7500 Gmax 16.5316 1/A FBSC none
REM MP grid 4 2 2 Offset 0.000 0.000 0.000 No. kpts 8 Spacing 0.07
REM Total runtime: 7607.68 s
REM Overall efficiency: 87.1429 %
REM
REM
REM
REM compiler GCC version 4.9.2
REM options -cpp -iprefix /scratch/UCL/applications/gcc/4.9.2/bin/../lib/gcc/x86_64-unknown-linux-gnu/4.9.2/ -mtune=corei7 -march=x86-64 -g -O2
REM COMMAND_LINE
REM seed -805590954 1329361952 544661820 -581650869 653997882 1044920035 1663130304 1545205593 1920012803 214884546 -555602807 1047836806
REM
REM S 3|1.8|5|6|7|30:31:32(qc=5)
REM O 2|1.5|12|13|15|20:21(qc=5)
REM Li 1|1.3|8|9|10|10U:20(qc=5)
REM Fe 3|2.2|2.0|1.0|8|9|10|40:41:32(qc=5)
REM Fe d:4.0 
REM
CELL 1.54180    3.83524    8.49049    8.49049  120.00000   90.00000   90.00000
LATT -1
SFAC Li O  S  Fe 
Li     1  0.4309350000000  0.0909020000000 -0.5150180000000 1.0  -0.02
Li     1  0.4309350000000  0.5150180000000 -0.3940800000000 1.0  -0.02
Li     1  0.4309350000000  0.3940800000000 -0.0909020000000 1.0  -0.02
Li     1 -0.5693600000000  0.1934650000000  0.2259000000000 1.0  -0.05
Li     1 -0.5693600000000 -0.2259000000000 -0.0324360000000 1.0  -0.05
Li     1 -0.5693600000000  0.0324360000000 -0.1934650000000 1.0  -0.05
O      2  0.4433850000000 -0.2275110000000 -0.2637010000000 1.0   0.11
O      2  0.4433850000000  0.2637010000000  0.0361900000000 1.0   0.11
O      2  0.4433850000000 -0.0361900000000  0.2275110000000 1.0   0.11
S      3 -0.0538720000000  0.0235490000000 -0.3982390000000 1.0   0.08
S      3 -0.0538720000000  0.3982390000000  0.4217880000000 1.0   0.08
S      3 -0.0538720000000 -0.4217880000000 -0.0235490000000 1.0   0.08
Fe     4 -0.0672690000000 -0.1149530000000  0.2448190000000 1.0   3.88
Fe     4 -0.0672690000000 -0.2448190000000 -0.3597730000000 1.0   3.88
Fe     4 -0.0672690000000  0.3597730000000  0.1149530000000 1.0   3.88
END
