TITL LFSO-Li2Fe4S3O2-201026-173555-d8b0df 0.0320 209.551921 -5.63591934E+003 16.0000 16.0976 11 (P-1) n - 1
REM
REM Run started: Mon, 26 Oct 2020 20:53:17 +0000 in /scratch/scratch/uccabz1/launch_tmp/launcher_2020-10-26-17-35-53-580514
REM CASTEP 19.11| from code version Version unavailable
REM Functional Perdew Burke Ernzerhof Relativity Koelling-Harmon Dispersion off
REM Cut-off 340.0000 eV Grid scale 1.7500 Gmax 16.5316 1/A FBSC none
REM MP grid 3 3 3 Offset 0.000 0.000 0.000 No. kpts 14 Spacing 0.07
REM Total runtime: 13169.2 s
REM Overall efficiency: 94.5 %
REM
REM
REM
REM compiler GCC version 4.9.2
REM options -cpp -iprefix /scratch/UCL/applications/gcc/4.9.2/bin/../lib/gcc/x86_64-unknown-linux-gnu/4.9.2/ -mtune=corei7 -march=x86-64 -g -O2
REM COMMAND_LINE
REM seed 566380854 1634981178 -576854295 1717530183 980754335 626783252 260158515 -2133745790 794277135 -1031071754 -1973562225 1318357765
REM
REM S 3|1.8|5|6|7|30:31:32(qc=5)
REM O 2|1.5|12|13|15|20:21(qc=5)
REM Li 1|1.3|8|9|10|10U:20(qc=5)
REM Fe 3|2.2|2.0|1.0|8|9|10|40:41:32(qc=5)
REM Fe d:4.0 
REM
CELL 1.54180    6.48131    6.43302    5.99281   74.76813  113.47219  112.79146
LATT -1
SFAC Li O  S  Fe 
Li     1 -0.2457190000000 -0.4443070000000  0.0997120000000 1.0  -0.06
Li     1  0.2457190000000  0.4443070000000 -0.0997120000000 1.0  -0.06
O      2  0.1215900000000  0.1959300000000  0.1138980000000 1.0   0.17
O      2 -0.1215900000000 -0.1959300000000 -0.1138980000000 1.0   0.17
S      3 -0.5063920000000 -0.2649480000000  0.1921390000000 1.0   0.07
S      3  0.5063920000000  0.2649480000000 -0.1921390000000 1.0   0.07
S      3  0.0000000000000  0.5000000000000  0.5000000000000 1.0   0.09
Fe     4  0.2352940000000  0.3577910000000  0.3941310000000 1.0   3.87
Fe     4 -0.2352940000000 -0.3577910000000 -0.3941310000000 1.0   3.87
Fe     4  0.2326630000000 -0.0293370000000  0.0459930000000 1.0   3.90
Fe     4 -0.2326630000000  0.0293370000000 -0.0459930000000 1.0   3.90
END
