TITL LFSO-Li4Fe3S3O2-201029-235934-1ce968 -0.0874 360.951406 -5.17224821E+003 4.00000 11.6899 12 (Cm) n - 1
REM
REM Run started: Fri, 30 Oct 2020 05:45:35 +0000 in /lustre/scratch/uccabz1/launch_tmp/launcher_2020-10-30-05-24-29-736860
REM CASTEP 20.1 from code version af48c487+ pr-geom-scf-spinfix Tue Jun 2 15:39:59 2020 +0100
REM Functional Perdew Burke Ernzerhof Relativity Koelling-Harmon Dispersion off
REM Cut-off 340.0000 eV Grid scale 1.7500 Gmax 16.5316 1/A FBSC none
REM MP grid 2 3 3 Offset 0.000 0.000 0.000 No. kpts 9 Spacing 0.07
REM Total runtime: 20420.4 s
REM Overall efficiency: 76.9286 %
REM
REM
REM
REM compiler GCC version 4.9.2
REM options -cpp -iprefix /scratch/UCL/applications/gcc/4.9.2/bin/../lib/gcc/x86_64-unknown-linux-gnu/4.9.2/ -mtune=corei7 -march=x86-64 -g -O2
REM COMMAND_LINE
REM seed -307314850 -1047395408 1066762016 -1483665068 2041122841 -1214423255 -761821051 -359671570 -351601566 -100359181 1296405044 -1473850980
REM
REM S 3|1.8|5|6|7|30:31:32(qc=5)
REM O 2|1.5|12|13|15|20:21(qc=5)
REM Li 1|1.3|8|9|10|10U:20(qc=5)
REM Fe 3|2.2|2.0|1.0|8|9|10|40:41:32(qc=5)
REM Fe d:4.0 
REM
CELL 1.54180   11.85884    8.29056    5.75343  106.56688   90.00000  135.65971
LATT -1
SFAC Li O  S  Fe 
Li     1  0.1652670000000 -0.2268730000000 -0.5977570000000 1.0   0.01
Li     1 -0.3921400000000 -0.2268730000000 -0.5977570000000 1.0   0.01
Li     1  0.0656550000000  0.5373540000000 -0.1600540000000 1.0  -0.01
Li     1 -0.5283010000000  0.5373540000000 -0.1600540000000 1.0  -0.01
O      2  0.4404320000000  0.5155430000000  0.1312780000000 1.0   0.19
O      2  0.0751110000000  0.5155430000000  0.1312780000000 1.0   0.19
S      3 -0.2483410000000 -0.1485910000000 -0.2234280000000 1.0  -0.01
S      3  0.0997500000000 -0.1485910000000 -0.2234280000000 1.0  -0.01
S      3  0.1249840000000  0.2499680000000 -0.5324560000000 1.0   0.01
Fe     4 -0.0217100000000  0.2192530000000  0.1355520000000 1.0   3.70
Fe     4  0.2409630000000  0.2192530000000  0.1355520000000 1.0   3.70
Fe     4 -0.0279790000000 -0.0559590000000 -0.3520260000000 1.0  -3.76
END
