TITL LFSO-Li6FeSO3-201028-045532-3e22c7 -0.0435 306.238883 -7.35923948E+003 8.00000 8.29353 22 (P21) n - 1
REM
REM Run started: Wed, 28 Oct 2020 08:37:28 +0000 in /scratch/scratch/uccabz1/launch_tmp/launcher_2020-10-28-04-55-30-777485
REM CASTEP 19.11| from code version Version unavailable
REM Functional Perdew Burke Ernzerhof Relativity Koelling-Harmon Dispersion off
REM Cut-off 340.0000 eV Grid scale 1.7500 Gmax 16.5316 1/A FBSC none
REM MP grid 3 4 2 Offset 0.000 0.000 0.000 No. kpts 6 Spacing 0.07
REM Total runtime: 14834 s
REM Overall efficiency: 77.0833 %
REM
REM
REM
REM compiler GCC version 4.9.2
REM options -cpp -iprefix /scratch/UCL/applications/gcc/4.9.2/bin/../lib/gcc/x86_64-unknown-linux-gnu/4.9.2/ -mtune=corei7 -march=x86-64 -g -O2
REM COMMAND_LINE
REM seed -603846976 1189645754 -263823159 -180846439 -2063851160 2035728429 -1928449653 431932250 1744303246 662250153 1225224470 348956093
REM
REM S 3|1.8|5|6|7|30:31:32(qc=5)
REM O 2|1.5|12|13|15|20:21(qc=5)
REM Li 1|1.3|8|9|10|10U:20(qc=5)
REM Fe 3|2.2|2.0|1.0|8|9|10|40:41:32(qc=5)
REM Fe d:4.0 
REM
CELL 1.54180    6.41821    4.99889   10.34271   90.00000   90.00000  112.65145
LATT -1
SFAC Li O  S  Fe 
Li     1  0.5866410000000  0.5766490000000  0.2450040000000 1.0  -0.02
Li     1 -0.5866410000000 -0.5766490000000 -0.2549960000000 1.0  -0.02
Li     1 -0.0016480000000  0.0114680000000  0.3579900000000 1.0  -0.02
Li     1  0.0016480000000 -0.0114680000000 -0.1420100000000 1.0  -0.02
Li     1  0.3947380000000 -0.0645250000000  0.2966800000000 1.0  -0.04
Li     1 -0.3947380000000  0.0645250000000 -0.2033200000000 1.0  -0.04
Li     1  0.2938430000000 -0.0221270000000 -0.3558850000000 1.0   0.02
Li     1 -0.2938430000000  0.0221270000000  0.1441150000000 1.0   0.02
Li     1 -0.7066450000000 -0.1801380000000 -0.0373520000000 1.0  -0.04
Li     1  0.7066450000000  0.1801380000000  0.4626480000000 1.0  -0.04
Li     1 -0.3690760000000 -0.4188780000000 -0.0450960000000 1.0   0.01
Li     1  0.3690760000000  0.4188780000000  0.4549040000000 1.0   0.01
O      2 -0.5249790000000 -0.3033410000000  0.0801440000000 1.0   0.16
O      2  0.5249790000000  0.3033410000000 -0.4198560000000 1.0   0.16
O      2 -0.3012730000000  0.7545710000000 -0.2116670000000 1.0   0.09
O      2  0.3012730000000 -0.7545710000000  0.2883330000000 1.0   0.09
O      2  0.3073820000000  0.0568380000000 -0.1763930000000 1.0   0.01
O      2 -0.3073820000000 -0.0568380000000  0.3236070000000 1.0   0.01
S      3  0.0783490000000 -0.3827030000000 -0.5023230000000 1.0   0.05
S      3 -0.0783490000000  0.3827030000000 -0.0023230000000 1.0   0.05
Fe     4 -0.2048180000000 -0.3867930000000 -0.3630760000000 1.0   3.77
Fe     4  0.2048180000000  0.3867930000000  0.1369240000000 1.0   3.77
END
