TITL LFSO-Li4Fe3S3O2-201028-224210-4d8663 0.0157 240.969657 -5.16968465E+003 10.6691 11.4891 12 (Cmm2) n - 1
REM
REM Run started: Wed, 28 Oct 2020 23:22:20 +0000 in /lustre/scratch/uccabz1/launch_tmp/launcher_2020-10-28-22-42-08-734651
REM CASTEP 20.1 from code version af48c487+ pr-geom-scf-spinfix Tue Jun 2 15:39:59 2020 +0100
REM Functional Perdew Burke Ernzerhof Relativity Koelling-Harmon Dispersion off
REM Cut-off 340.0000 eV Grid scale 1.7500 Gmax 16.5316 1/A FBSC none
REM MP grid 3 3 3 Offset 0.000 0.000 0.000 No. kpts 8 Spacing 0.07
REM Total runtime: 3810.11 s
REM Overall efficiency: 94.8 %
REM
REM
REM
REM compiler GCC version 4.9.2
REM options -cpp -iprefix /lustre/shared/ucl/apps/gcc/4.9.2/bin/../lib/gcc/x86_64-unknown-linux-gnu/4.9.2/ -mtune=corei7 -march=x86-64 -g -Og
REM COMMAND_LINE
REM seed 1643751808 1121380235 -1906366978 -193808792 1054943735 -704964084 -1721106440 912738765 -1106507372 -1074521822 1329087737 345537798
REM
REM S 3|1.8|5|6|7|30:31:32(qc=5)
REM O 2|1.5|12|13|15|20:21(qc=5)
REM Li 1|1.3|8|9|10|10U:20(qc=5)
REM Fe 3|2.2|2.0|1.0|8|9|10|40:41:32(qc=5)
REM Fe d:4.0 
REM
CELL 1.54180    4.94518    9.00491    9.00491  143.06368   90.00000   90.00000
LATT -1
SFAC Li O  S  Fe 
Li     1  0.4074580000000 -0.1057120000000 -0.3466520000000 1.0  -0.04
Li     1  0.4074580000000  0.1057120000000  0.3466520000000 1.0  -0.04
Li     1  0.4074580000000  0.3466520000000  0.1057120000000 1.0  -0.04
Li     1  0.4074580000000 -0.3466520000000 -0.1057120000000 1.0  -0.04
O      2 -0.3631270000000  0.1698880000000 -0.1698880000000 1.0   0.17
O      2 -0.3631270000000 -0.1698880000000  0.1698880000000 1.0   0.17
S      3  0.1795700000000 -0.5000000000000  0.0000000000000 1.0  -0.13
S      3  0.1795700000000  0.0000000000000 -0.5000000000000 1.0  -0.13
S      3  0.4691050000000 -0.5000000000000 -0.5000000000000 1.0  -0.01
Fe     4 -0.2958930000000  0.5000000000000  0.0000000000000 1.0   3.71
Fe     4 -0.2958930000000  0.0000000000000  0.5000000000000 1.0   3.71
Fe     4 -0.0036280000000 -0.5000000000000 -0.5000000000000 1.0   3.36
END
