TITL LFSO-Li2Fe3S2O2-201023-235414-da0588 -0.0156 159.516125 -4.46462343E+003 -11.9972 12.1409 9 (Pmm2) n - 1
REM
REM Run started: Sat, 24 Oct 2020 02:13:58 +0100 in /lustre/scratch/uccabz1/launch_tmp/launcher_2020-10-23-22-54-12-494193
REM CASTEP 20.1 from code version af48c487+ pr-geom-scf-spinfix Tue Jun 2 15:39:59 2020 +0100
REM Functional Perdew Burke Ernzerhof Relativity Koelling-Harmon Dispersion off
REM Cut-off 340.0000 eV Grid scale 1.7500 Gmax 16.5316 1/A FBSC none
REM MP grid 3 4 2 Offset 0.000 0.000 0.000 No. kpts 4 Spacing 0.07
REM Total runtime: 6553.79 s
REM Overall efficiency: 87.4 %
REM
REM
REM
REM compiler GCC version 4.9.2
REM options -cpp -iprefix /lustre/shared/ucl/apps/gcc/4.9.2/bin/../lib/gcc/x86_64-unknown-linux-gnu/4.9.2/ -mtune=corei7 -march=x86-64 -g -Og
REM COMMAND_LINE
REM seed 1052387474 -1634439092 -2088048969 -531800825 -1783118968 -1000606963 2004124997 576454579 -1482982474 771849806 367586673 1186603596
REM
REM S 3|1.8|5|6|7|30:31:32(qc=5)
REM O 2|1.5|12|13|15|20:21(qc=5)
REM Li 1|1.3|8|9|10|10U:20(qc=5)
REM Fe 3|2.2|2.0|1.0|8|9|10|40:41:32(qc=5)
REM Fe d:4.0 
REM
CELL 1.54180    5.15993    3.87632    7.97519   90.00000   90.00000   90.00000
LATT -1
SFAC Li O  S  Fe 
Li     1 -0.1440480000000  0.2354490000000  0.5000000000000 1.0   0.09
Li     1 -0.1440480000000 -0.2354490000000  0.5000000000000 1.0   0.09
O      2  0.0059100000000  0.0000000000000 -0.3139170000000 1.0  -0.16
O      2  0.0059100000000  0.0000000000000  0.3139170000000 1.0  -0.16
S      3 -0.4684670000000  0.5000000000000  0.2408740000000 1.0  -0.26
S      3 -0.4684670000000  0.5000000000000 -0.2408740000000 1.0  -0.26
Fe     4  0.0482340000000  0.5000000000000  0.2216990000000 1.0  -3.83
Fe     4  0.0482340000000  0.5000000000000 -0.2216990000000 1.0  -3.83
Fe     4  0.3829980000000 -0.5000000000000  0.5000000000000 1.0  -3.68
END
