TITL LFSO-Li2Fe3S2O2-201024-035403-793c57 0.0573 231.230744 -4.46486023E+003 10.5118 11.6974 9 (Pmmm) n - 1
REM
REM Run started: Sat, 24 Oct 2020 05:54:27 +0100 in /lustre/scratch/uccabz1/launch_tmp/launcher_2020-10-24-02-54-01-822371
REM CASTEP 20.1 from code version af48c487+ pr-geom-scf-spinfix Tue Jun 2 15:39:59 2020 +0100
REM Functional Perdew Burke Ernzerhof Relativity Koelling-Harmon Dispersion off
REM Cut-off 340.0000 eV Grid scale 1.7500 Gmax 16.5316 1/A FBSC none
REM MP grid 5 2 2 Offset 0.000 0.000 0.000 No. kpts 3 Spacing 0.07
REM Total runtime: 7246.11 s
REM Overall efficiency: 80.3636 %
REM
REM
REM
REM compiler GCC version 4.9.2
REM options -cpp -iprefix /lustre/shared/ucl/apps/gcc/4.9.2/bin/../lib/gcc/x86_64-unknown-linux-gnu/4.9.2/ -mtune=corei7 -march=x86-64 -g -Og
REM COMMAND_LINE
REM seed -687011316 1519323989 -1415312634 -1898647047 -134084485 44521824 1274744118 -1271841490 -399013844 886209162 -469893326 2050025007
REM
REM S 3|1.8|5|6|7|30:31:32(qc=5)
REM O 2|1.5|12|13|15|20:21(qc=5)
REM Li 1|1.3|8|9|10|10U:20(qc=5)
REM Fe 3|2.2|2.0|1.0|8|9|10|40:41:32(qc=5)
REM Fe d:4.0 
REM
CELL 1.54180    3.00101    9.40129    8.19578   90.00000   90.00000   90.00000
LATT -1
SFAC Li O  S  Fe 
Li     1 -0.0000000000000  0.2307000000000 -0.5000000000000 1.0  -0.31
Li     1 -0.0000000000000 -0.2307000000000  0.5000000000000 1.0  -0.31
O      2 -0.0000000000000 -0.5000000000000  0.1766900000000 1.0   0.16
O      2 -0.0000000000000  0.5000000000000 -0.1766900000000 1.0   0.16
S      3 -0.0000000000000 -0.0000000000000  0.3763120000000 1.0   0.12
S      3 -0.0000000000000 -0.0000000000000 -0.3763120000000 1.0   0.12
Fe     4 -0.5000000000000 -0.5000000000000 -0.3458210000000 1.0   3.41
Fe     4  0.5000000000000  0.5000000000000  0.3458210000000 1.0   3.41
Fe     4  0.5000000000000 -0.5000000000000  0.0000000000000 1.0   3.75
END
