TITL LFSO-Li2Fe2S2O-201022-063428-4799e6 0.0082 227.390404 -6.33856254E+003 16.0000 16.1069 14 (R3) n - 1
REM
REM Run started: Thu, 22 Oct 2020 09:01:27 +0100 in /lustre/scratch/uccabz1/launch_tmp/launcher_2020-10-22-05-34-27-231849
REM CASTEP 20.1 from code version af48c487+ pr-geom-scf-spinfix Tue Jun 2 15:39:59 2020 +0100
REM Functional Perdew Burke Ernzerhof Relativity Koelling-Harmon Dispersion off
REM Cut-off 340.0000 eV Grid scale 1.7500 Gmax 16.5316 1/A FBSC none
REM MP grid 3 3 3 Offset 0.000 0.000 0.000 No. kpts 6 Spacing 0.07
REM Total runtime: 9811.38 s
REM Overall efficiency: 96.2857 %
REM
REM
REM
REM compiler GCC version 4.9.2
REM options -cpp -iprefix /lustre/shared/ucl/apps/gcc/4.9.2/bin/../lib/gcc/x86_64-unknown-linux-gnu/4.9.2/ -mtune=corei7 -march=x86-64 -g -Og
REM COMMAND_LINE
REM seed 1456731049 -1574785193 -1774498342 206358180 192348703 1347084223 2039186698 -664865621 1300239986 2124392744 990262210 -1027495998
REM
REM S 3|1.8|5|6|7|30:31:32(qc=5)
REM O 2|1.5|12|13|15|20:21(qc=5)
REM Li 1|1.3|8|9|10|10U:20(qc=5)
REM Fe 3|2.2|2.0|1.0|8|9|10|40:41:32(qc=5)
REM Fe d:4.0 
REM
CELL 1.54180    6.58066    6.58066    6.58066   65.93138   65.93138   65.93138
LATT -1
SFAC Li O  S  Fe 
Li     1  0.4369120000000 -0.3410490000000 -0.1477890000000 1.0  -0.06
Li     1 -0.1477890000000  0.4369120000000 -0.3410490000000 1.0  -0.06
Li     1 -0.3410490000000 -0.1477890000000  0.4369120000000 1.0  -0.06
Li     1  0.4443310000000  0.4443310000000  0.4443310000000 1.0  -0.05
O      2  0.1682650000000  0.1682650000000  0.1682650000000 1.0   0.21
O      2 -0.4328600000000 -0.4328600000000 -0.4328600000000 1.0   0.06
S      3  0.3018400000000  0.0947100000000 -0.3366570000000 1.0   0.16
S      3 -0.3366570000000  0.3018400000000  0.0947100000000 1.0   0.16
S      3  0.0947100000000 -0.3366570000000  0.3018400000000 1.0   0.16
S      3 -0.1655370000000 -0.1655370000000 -0.1655370000000 1.0   0.11
Fe     4  0.1583170000000 -0.0747730000000  0.4803930000000 1.0   3.90
Fe     4  0.4803930000000  0.1583170000000 -0.0747730000000 1.0   3.90
Fe     4 -0.0747730000000  0.4803930000000  0.1583170000000 1.0   3.90
Fe     4  0.0141250000000  0.0141250000000  0.0141250000000 1.0   3.66
END
