TITL LFSO-Li2Fe2S2O-201021-231808-6e7bef 0.0001 330.733083 -6.34013966E+003 16.0000 16.1791 14 (P21) n - 1
REM
REM Run started: Thu, 22 Oct 2020 06:00:39 +0100 in /scratch/scratch/uccabz1/launch_tmp/launcher_2020-10-21-22-18-06-663345
REM CASTEP 19.11| from code version Version unavailable
REM Functional Perdew Burke Ernzerhof Relativity Koelling-Harmon Dispersion off
REM Cut-off 340.0000 eV Grid scale 1.7500 Gmax 16.5316 1/A FBSC none
REM MP grid 2 3 3 Offset 0.000 0.000 0.000 No. kpts 5 Spacing 0.07
REM Total runtime: 27849.6 s
REM Overall efficiency: 66.25 %
REM
REM
REM
REM compiler GCC version 4.9.2
REM options -cpp -iprefix /scratch/UCL/applications/gcc/4.9.2/bin/../lib/gcc/x86_64-unknown-linux-gnu/4.9.2/ -mtune=corei7 -march=x86-64 -g -O2
REM COMMAND_LINE
REM seed -1382584746 -909134970 857848359 -161108626 533010377 -1996206143 -2036923787 -1464962612 976423076 473081399 -1330715524 -535426177
REM
REM S 3|1.8|5|6|7|30:31:32(qc=5)
REM O 2|1.5|12|13|15|20:21(qc=5)
REM Li 1|1.3|8|9|10|10U:20(qc=5)
REM Fe 3|2.2|2.0|1.0|8|9|10|40:41:32(qc=5)
REM Fe d:4.0 
REM
CELL 1.54180    8.46893    6.20397    6.30150   87.35121   90.00000   90.00000
LATT -1
SFAC Li O  S  Fe 
Li     1  0.1938340000000 -0.1864890000000  0.3757470000000 1.0  -0.01
Li     1 -0.3061660000000  0.1864890000000 -0.3757470000000 1.0  -0.01
Li     1 -0.3295960000000 -0.0483110000000  0.2185640000000 1.0  -0.01
Li     1  0.1704040000000  0.0483110000000 -0.2185640000000 1.0  -0.01
O      2  0.1795130000000 -0.2347760000000 -0.3215030000000 1.0   0.19
O      2 -0.3204870000000  0.2347760000000  0.3215030000000 1.0   0.19
S      3 -0.0761860000000  0.2621280000000 -0.1602490000000 1.0   0.05
S      3  0.4238140000000 -0.2621280000000  0.1602490000000 1.0   0.05
S      3 -0.0935490000000 -0.2766230000000  0.3176740000000 1.0   0.12
S      3  0.4064510000000  0.2766230000000 -0.3176740000000 1.0   0.12
Fe     4  0.3422900000000 -0.3974590000000 -0.1661860000000 1.0   3.85
Fe     4 -0.1577100000000  0.3974590000000  0.1661860000000 1.0   3.85
Fe     4 -0.5009700000000  0.4251470000000  0.3545640000000 1.0   3.81
Fe     4 -0.0009700000000 -0.4251470000000 -0.3545640000000 1.0   3.81
END
