TITL LFSO-Li4Fe2S3O-201028-014558-0f6a3d 0.0402 384.542982 -7.74515740E+003 15.9647 16.2245 20 (Pc) n - 1
REM
REM Run started: Wed, 28 Oct 2020 21:57:48 +0000 in /scratch/scratch/uccabz1/launch_tmp/launcher_2020-10-28-01-45-55-887881
REM CASTEP 19.11| from code version Version unavailable
REM Functional Perdew Burke Ernzerhof Relativity Koelling-Harmon Dispersion off
REM Cut-off 340.0000 eV Grid scale 1.7500 Gmax 16.5316 1/A FBSC none
REM MP grid 4 3 1 Offset 0.000 0.000 0.000 No. kpts 6 Spacing 0.07
REM Total runtime: 88177.2 s
REM Overall efficiency: 97.25 %
REM
REM
REM
REM compiler GCC version 4.9.2
REM options -cpp -iprefix /scratch/UCL/applications/gcc/4.9.2/bin/../lib/gcc/x86_64-unknown-linux-gnu/4.9.2/ -mtune=corei7 -march=x86-64 -g -O2
REM COMMAND_LINE
REM seed -1431167394 1882687177 -226821658 1252775574 1143676714 148214800 -1182712632 743281693 2009607430 741149603 -2044464617 -1964368399
REM
REM S 3|1.8|5|6|7|30:31:32(qc=5)
REM O 2|1.5|12|13|15|20:21(qc=5)
REM Li 1|1.3|8|9|10|10U:20(qc=5)
REM Fe 3|2.2|2.0|1.0|8|9|10|40:41:32(qc=5)
REM Fe d:4.0 
REM
CELL 1.54180    3.64020    6.12083   17.25888   90.00000   90.00000   90.21697
LATT -1
SFAC Li O  S  Fe 
Li     1 -0.2589940000000  0.0115190000000  0.5291900000000 1.0   0.01
Li     1 -0.2589940000000  0.5115190000000 -0.5291900000000 1.0   0.01
Li     1 -0.2586260000000  0.0773270000000  0.3763830000000 1.0   0.01
Li     1 -0.2586260000000 -0.4226730000000 -0.3763830000000 1.0   0.01
Li     1  0.2405850000000 -0.2357820000000  0.4203800000000 1.0  -0.02
Li     1  0.2405850000000  0.2642180000000 -0.4203800000000 1.0  -0.02
Li     1  0.3195150000000  0.4072270000000  0.2491690000000 1.0  -0.01
Li     1  0.3195150000000 -0.0927730000000 -0.2491690000000 1.0  -0.01
O      2 -0.2621390000000 -0.1738460000000  0.4360240000000 1.0   0.12
O      2 -0.2621390000000  0.3261540000000 -0.4360240000000 1.0   0.12
S      3 -0.2928170000000 -0.3269730000000 -0.1649600000000 1.0   0.16
S      3 -0.2928170000000  0.1730270000000  0.1649600000000 1.0   0.16
S      3  0.2317550000000 -0.1549650000000 -0.3775840000000 1.0   0.38
S      3  0.2317550000000  0.3450350000000  0.3775840000000 1.0   0.38
S      3  0.2223610000000 -0.3624640000000  0.0453480000000 1.0   0.10
S      3  0.2223610000000  0.1375360000000 -0.0453480000000 1.0   0.10
Fe     4  0.2067990000000  0.4962510000000 -0.1065410000000 1.0   3.61
Fe     4  0.2067990000000 -0.0037490000000  0.1065410000000 1.0   3.61
Fe     4 -0.2727480000000 -0.1432210000000 -0.0352900000000 1.0   3.63
Fe     4 -0.2727480000000  0.3567790000000  0.0352900000000 1.0   3.63
END
