TITL LFSO-Li2Fe3S3O-201025-205600-a13646 -0.0024 321.906930 -8.67033575E+003 24.0000 24.2485 18 (R3) n - 1
REM
REM Run started: Mon, 26 Oct 2020 15:29:14 +0000 in /lustre/scratch/uccabz1/launch_tmp/launcher_2020-10-25-20-55-58-989917
REM CASTEP 20.1 from code version af48c487+ pr-geom-scf-spinfix Tue Jun 2 15:39:59 2020 +0100
REM Functional Perdew Burke Ernzerhof Relativity Koelling-Harmon Dispersion off
REM Cut-off 340.0000 eV Grid scale 1.7500 Gmax 16.5316 1/A FBSC none
REM MP grid 3 3 2 Offset 0.000 0.000 0.000 No. kpts 7 Spacing 0.07
REM Total runtime: 72826.2 s
REM Overall efficiency: 98.1667 %
REM
REM
REM
REM compiler GCC version 4.9.2
REM options -cpp -iprefix /lustre/shared/ucl/apps/gcc/4.9.2/bin/../lib/gcc/x86_64-unknown-linux-gnu/4.9.2/ -mtune=corei7 -march=x86-64 -g -Og
REM COMMAND_LINE
REM seed 72784997 -1949057773 -1251545155 1604096139 -1197539129 813385769 -112646511 -15346871 -1617910524 2072439831 -641197321 771100600
REM
REM S 3|1.8|5|6|7|30:31:32(qc=5)
REM O 2|1.5|12|13|15|20:21(qc=5)
REM Li 1|1.3|8|9|10|10U:20(qc=5)
REM Fe 3|2.2|2.0|1.0|8|9|10|40:41:32(qc=5)
REM Fe d:4.0 
REM
CELL 1.54180    7.02449    7.02449    8.55538   65.76185   65.76185   60.00000
LATT -1
SFAC Li O  S  Fe 
Li     1  0.3763680000000 -0.1791810000000  0.2278550000000 1.0  -0.06
Li     1 -0.4250420000000  0.3763680000000  0.2278550000000 1.0  -0.06
Li     1 -0.1791810000000 -0.4250420000000  0.2278550000000 1.0  -0.06
Li     1 -0.2642540000000 -0.2642540000000 -0.2072380000000 1.0  -0.09
O      2  0.4069800000000  0.4069800000000 -0.2209410000000 1.0   0.26
O      2 -0.4596590000000 -0.4596590000000  0.3789780000000 1.0   0.17
S      3  0.3498250000000 -0.2905770000000  0.0012250000000 1.0   0.12
S      3 -0.0604740000000  0.3498250000000  0.0012250000000 1.0   0.12
S      3 -0.2905770000000 -0.0604740000000  0.0012250000000 1.0   0.12
S      3 -0.1221710000000  0.4899890000000  0.5469680000000 1.0   0.16
S      3  0.0852140000000 -0.1221710000000  0.5469680000000 1.0   0.16
S      3  0.4899890000000  0.0852140000000  0.5469680000000 1.0   0.16
Fe     4  0.3342450000000  0.1205130000000 -0.1205890000000 1.0   3.83
Fe     4 -0.3341700000000  0.3342450000000 -0.1205890000000 1.0   3.83
Fe     4  0.1205130000000 -0.3341700000000 -0.1205890000000 1.0   3.83
Fe     4  0.2321160000000  0.4849560000000 -0.4674050000000 1.0   3.83
Fe     4 -0.2496670000000  0.2321160000000 -0.4674050000000 1.0   3.83
Fe     4  0.4849560000000 -0.2496670000000 -0.4674050000000 1.0   3.83
END
