TITL LFSO-Li2Fe3S3O-201026-144312-1c1ae7 -0.0161 569.114136 -8.66998843E+003 24.0000 24.2970 18 (P3) n - 1
REM
REM Run started: Tue, 27 Oct 2020 00:01:53 +0000 in /scratch/scratch/uccabz1/launch_tmp/launcher_2020-10-26-14-43-10-655302
REM CASTEP 19.11| from code version Version unavailable
REM Functional Perdew Burke Ernzerhof Relativity Koelling-Harmon Dispersion off
REM Cut-off 340.0000 eV Grid scale 1.7500 Gmax 16.5316 1/A FBSC none
REM MP grid 2 2 2 Offset 0.000 0.000 0.000 No. kpts 4 Spacing 0.07
REM Total runtime: 34444.1 s
REM Overall efficiency: 74.7273 %
REM
REM
REM
REM compiler GCC version 4.9.2
REM options -cpp -iprefix /scratch/UCL/applications/gcc/4.9.2/bin/../lib/gcc/x86_64-unknown-linux-gnu/4.9.2/ -mtune=corei7 -march=x86-64 -g -O2
REM COMMAND_LINE
REM seed -1130990065 1008721929 1558240003 -75645674 1062889301 1876696479 979215567 -297821226 544830112 1567407130 163945042 -1457268914
REM
REM S 3|1.8|5|6|7|30:31:32(qc=5)
REM O 2|1.5|12|13|15|20:21(qc=5)
REM Li 1|1.3|8|9|10|10U:20(qc=5)
REM Fe 3|2.2|2.0|1.0|8|9|10|40:41:32(qc=5)
REM Fe d:4.0 
REM
CELL 1.54180    9.52272    9.52272    7.24680   90.00000   90.00000  120.00000
LATT -1
SFAC Li O  S  Fe 
Li     1  0.4272860000000  0.1780080000000 -0.1886250000000 1.0  -0.02
Li     1 -0.2492780000000 -0.4272860000000 -0.1886250000000 1.0  -0.02
Li     1 -0.1780080000000  0.2492780000000 -0.1886250000000 1.0  -0.02
Li     1 -0.3333330000000  0.3333330000000  0.3669880000000 1.0   0.03
O      2  0.3333330000000 -0.3333330000000  0.2001430000000 1.0   0.21
O      2  0.3333330000000 -0.3333330000000 -0.3273980000000 1.0   0.23
S      3 -0.3681220000000 -0.4304820000000  0.4467460000000 1.0   0.13
S      3 -0.0623600000000  0.3681220000000  0.4467460000000 1.0   0.13
S      3  0.4304820000000  0.0623600000000  0.4467460000000 1.0   0.13
S      3 -0.0529310000000 -0.4801550000000 -0.0644330000000 1.0   0.11
S      3 -0.4272240000000  0.0529310000000 -0.0644330000000 1.0   0.11
S      3  0.4801550000000  0.4272240000000 -0.0644330000000 1.0   0.11
Fe     4  0.0968260000000  0.5345520000000  0.2007800000000 1.0   3.83
Fe     4  0.4377260000000 -0.0968260000000  0.2007800000000 1.0   3.83
Fe     4 -0.5345520000000 -0.4377260000000  0.2007800000000 1.0   3.83
Fe     4 -0.5428160000000 -0.4428440000000 -0.3247210000000 1.0   3.79
Fe     4  0.0999720000000  0.5428160000000 -0.3247210000000 1.0   3.79
Fe     4  0.4428440000000 -0.0999720000000 -0.3247210000000 1.0   3.79
END
