TITL LFSO-Li2Fe4S4O-201024-084521-600864 -2.0123 362.516002 -5.49396317E+003 16.5952 16.9718 11 (Pmm2) n - 1
REM
REM Run started: Sat, 24 Oct 2020 10:10:02 +0100 in /lustre/scratch/uccabz1/launch_tmp/launcher_2020-10-24-07-45-19-703153
REM CASTEP 20.1 from code version af48c487+ pr-geom-scf-spinfix Tue Jun 2 15:39:59 2020 +0100
REM Functional Perdew Burke Ernzerhof Relativity Koelling-Harmon Dispersion off
REM Cut-off 340.0000 eV Grid scale 1.7500 Gmax 16.5316 1/A FBSC none
REM MP grid 4 2 2 Offset 0.000 0.000 0.000 No. kpts 2 Spacing 0.07
REM Total runtime: 6529.34 s
REM Overall efficiency: 75.3077 %
REM
REM
REM
REM compiler GCC version 4.9.2
REM options -cpp -iprefix /lustre/shared/ucl/apps/gcc/4.9.2/bin/../lib/gcc/x86_64-unknown-linux-gnu/4.9.2/ -mtune=corei7 -march=x86-64 -g -Og
REM COMMAND_LINE
REM seed -1166470160 -1912635194 -1495136234 -92256008 93276409 1872851476 -300680573 1811329139 1218302311 -860500380 -1085894976 278273857
REM
REM S 3|1.8|5|6|7|30:31:32(qc=5)
REM O 2|1.5|12|13|15|20:21(qc=5)
REM Li 1|1.3|8|9|10|10U:20(qc=5)
REM Fe 3|2.2|2.0|1.0|8|9|10|40:41:32(qc=5)
REM Fe d:4.0 
REM
CELL 1.54180    4.14337    9.37417    9.33343   90.00000   90.00000   90.00000
LATT -1
SFAC Li O  S  Fe 
Li     1  0.4300160000000  0.5000000000000 -0.1432880000000 1.0  -0.03
Li     1  0.4300160000000 -0.5000000000000  0.1432880000000 1.0  -0.03
O      2  0.1575320000000 -0.5000000000000  0.0000000000000 1.0   1.00
S      3 -0.4641520000000  0.2501790000000 -0.2640150000000 1.0   0.08
S      3 -0.4641520000000 -0.2501790000000  0.2640150000000 1.0   0.08
S      3 -0.4641520000000  0.2501790000000  0.2640150000000 1.0   0.08
S      3 -0.4641520000000 -0.2501790000000 -0.2640150000000 1.0   0.08
Fe     4  0.0644190000000  0.1455000000000  0.3528610000000 1.0   3.84
Fe     4  0.0644190000000 -0.1455000000000 -0.3528610000000 1.0   3.84
Fe     4  0.0644190000000  0.1455000000000 -0.3528610000000 1.0   3.84
Fe     4  0.0644190000000 -0.1455000000000  0.3528610000000 1.0   3.84
END
