TITL LFSO-Li4Fe2S3O-201026-055630-03b36e 0.0610 416.287971 -7.74412676E+003 14.0000 14.7563 20 (C2) n - 1
REM
REM Run started: Mon, 26 Oct 2020 16:08:13 +0000 in /lustre/scratch/uccabz1/launch_tmp/launcher_2020-10-26-05-56-28-546378
REM CASTEP 20.1 from code version af48c487+ pr-geom-scf-spinfix Tue Jun 2 15:39:59 2020 +0100
REM Functional Perdew Burke Ernzerhof Relativity Koelling-Harmon Dispersion off
REM Cut-off 340.0000 eV Grid scale 1.7500 Gmax 16.5316 1/A FBSC none
REM MP grid 3 3 3 Offset 0.000 0.000 0.000 No. kpts 10 Spacing 0.07
REM Total runtime: 40204.4 s
REM Overall efficiency: 72.9167 %
REM
REM
REM
REM compiler GCC version 4.9.2
REM options -cpp -iprefix /lustre/shared/ucl/apps/gcc/4.9.2/bin/../lib/gcc/x86_64-unknown-linux-gnu/4.9.2/ -mtune=corei7 -march=x86-64 -g -Og
REM COMMAND_LINE
REM seed -2026253528 695271437 482438796 74885720 -1154336768 -1175123250 1129069127 -2053854165 1609882576 488075487 -1267129848 -650293061
REM
REM S 3|1.8|5|6|7|30:31:32(qc=5)
REM O 2|1.5|12|13|15|20:21(qc=5)
REM Li 1|1.3|8|9|10|10U:20(qc=5)
REM Fe 3|2.2|2.0|1.0|8|9|10|40:41:32(qc=5)
REM Fe d:4.0 
REM
CELL 1.54180    5.29299   12.75504   12.75504   29.01698   85.43346   85.43346
LATT -1
SFAC Li O  S  Fe 
Li     1 -0.4612060000000 -0.2696570000000  0.6053930000000 1.0  -0.04
Li     1  0.4612060000000 -0.6053930000000  0.2696570000000 1.0  -0.04
Li     1 -0.0782210000000  0.3787520000000  0.0735530000000 1.0  -0.01
Li     1  0.0782210000000 -0.0735530000000 -0.3787520000000 1.0  -0.01
Li     1  0.4509880000000  0.2501520000000  0.1369280000000 1.0  -0.01
Li     1 -0.4509880000000 -0.1369280000000 -0.2501520000000 1.0  -0.01
Li     1  0.2822830000000 -0.2333960000000  0.3365570000000 1.0  -0.08
Li     1 -0.2822830000000 -0.3365570000000  0.2333960000000 1.0  -0.08
O      2  0.5072650000000 -0.3658860000000 -0.4626350000000 1.0   0.13
O      2 -0.5072650000000  0.4626350000000  0.3658860000000 1.0   0.13
S      3  0.1663420000000  0.0533920000000 -0.2928450000000 1.0   0.05
S      3 -0.1663420000000  0.2928450000000 -0.0533920000000 1.0   0.05
S      3 -0.3050460000000  0.0856500000000  0.4138890000000 1.0   0.03
S      3  0.3050460000000 -0.4138890000000 -0.0856500000000 1.0   0.03
S      3 -0.1767270000000 -0.1291140000000 -0.1036320000000 1.0   0.02
S      3  0.1767270000000  0.1036320000000  0.1291140000000 1.0   0.02
Fe     4  0.1636500000000  0.3926360000000 -0.4917220000000 1.0   3.45
Fe     4 -0.1636500000000  0.4917220000000 -0.3926360000000 1.0   3.45
Fe     4  0.3050460000000  0.3819490000000 -0.2237980000000 1.0   3.46
Fe     4 -0.3050460000000  0.2237980000000 -0.3819490000000 1.0   3.46
END
