TITL LFSO-Li4Fe3S3O2-201029-144958-907a5c 0.0552 625.003354 -1.03395048E+004 24.0000 24.4495 24 (P3) n - 1
REM
REM Run started: Thu, 29 Oct 2020 22:59:41 +0000 in /scratch/scratch/uccabz1/launch_tmp/launcher_2020-10-29-14-49-57-024796
REM CASTEP 19.11| from code version Version unavailable
REM Functional Perdew Burke Ernzerhof Relativity Koelling-Harmon Dispersion off
REM Cut-off 340.0000 eV Grid scale 1.7500 Gmax 16.5316 1/A FBSC none
REM MP grid 2 3 3 Offset 0.000 0.000 0.000 No. kpts 5 Spacing 0.07
REM Total runtime: 32957.4 s
REM Overall efficiency: 75.1667 %
REM
REM
REM
REM compiler GCC version 4.9.2
REM options -cpp -iprefix /scratch/UCL/applications/gcc/4.9.2/bin/../lib/gcc/x86_64-unknown-linux-gnu/4.9.2/ -mtune=corei7 -march=x86-64 -g -O2
REM COMMAND_LINE
REM seed 1975780123 192094294 -332342631 1885429847 102568003 75856564 -371940187 -245028212 1086222612 -413869576 2092148982 -1986593529
REM
REM S 3|1.8|5|6|7|30:31:32(qc=5)
REM O 2|1.5|12|13|15|20:21(qc=5)
REM Li 1|1.3|8|9|10|10U:20(qc=5)
REM Fe 3|2.2|2.0|1.0|8|9|10|40:41:32(qc=5)
REM Fe d:4.0 
REM
CELL 1.54180   10.36283    8.34520    8.34520  120.00000   90.00000   90.00000
LATT -1
SFAC Li O  S  Fe 
Li     1  0.1619820000000 -0.2822010000000  0.0269400000000 1.0  -0.01
Li     1  0.1619820000000  0.3091400000000  0.2822010000000 1.0  -0.01
Li     1  0.1619820000000 -0.0269400000000 -0.3091400000000 1.0  -0.01
Li     1 -0.0248120000000  0.0898210000000 -0.4467670000000 1.0  -0.02
Li     1 -0.0248120000000  0.4634120000000 -0.0898210000000 1.0  -0.02
Li     1 -0.0248120000000  0.4467670000000 -0.4634120000000 1.0  -0.02
Li     1 -0.0493390000000 -0.3333330000000  0.3333330000000 1.0  -0.05
Li     1  0.1415300000000 -0.3333330000000  0.3333330000000 1.0  -0.03
O      2  0.0484560000000  0.4853800000000  0.3625490000000 1.0   0.39
O      2  0.0484560000000 -0.1228310000000 -0.4853800000000 1.0   0.39
O      2  0.0484560000000 -0.3625490000000  0.1228310000000 1.0   0.39
O      2 -0.0121330000000  0.3333330000000 -0.3333330000000 1.0   0.37
S      3 -0.3691300000000 -0.3184070000000  0.0622040000000 1.0   0.16
S      3 -0.3691300000000  0.3806100000000  0.3184070000000 1.0   0.16
S      3 -0.3691300000000 -0.0622040000000 -0.3806100000000 1.0   0.16
S      3  0.3340750000000 -0.2423600000000 -0.2894890000000 1.0   0.18
S      3  0.3340750000000 -0.0471290000000  0.2423600000000 1.0   0.18
S      3  0.3340750000000  0.2894890000000  0.0471290000000 1.0   0.18
Fe     4 -0.5478070000000  0.1858480000000  0.2366810000000 1.0   3.55
Fe     4 -0.5478070000000  0.0508330000000 -0.1858480000000 1.0   3.55
Fe     4 -0.5478070000000 -0.2366810000000 -0.0508330000000 1.0   3.55
Fe     4  0.5292880000000 -0.3507290000000 -0.4637680000000 1.0   3.65
Fe     4  0.5292880000000 -0.1130380000000  0.3507290000000 1.0   3.65
Fe     4  0.5292880000000  0.4637680000000  0.1130380000000 1.0   3.65
END
