TITL LFSO-Li5FeSO3-201026-230422-14ba5a -0.0813 432.887644 -6.95356473E+003 6.00474 7.79253 20 (P2) n - 1
REM
REM Run started: Tue, 27 Oct 2020 10:33:41 +0000 in /lustre/scratch/uccabz1/launch_tmp/launcher_2020-10-26-23-04-20-026536
REM CASTEP 20.1 from code version af48c487+ pr-geom-scf-spinfix Tue Jun 2 15:39:59 2020 +0100
REM Functional Perdew Burke Ernzerhof Relativity Koelling-Harmon Dispersion off
REM Cut-off 340.0000 eV Grid scale 1.7500 Gmax 16.5316 1/A FBSC none
REM MP grid 4 2 2 Offset 0.000 0.000 0.000 No. kpts 4 Spacing 0.07
REM Total runtime: 19803.3 s
REM Overall efficiency: 75.4167 %
REM
REM
REM
REM compiler GCC version 4.9.2
REM options -cpp -iprefix /lustre/shared/ucl/apps/gcc/4.9.2/bin/../lib/gcc/x86_64-unknown-linux-gnu/4.9.2/ -mtune=corei7 -march=x86-64 -g -Og
REM COMMAND_LINE
REM seed 724253113 -1812780264 -654578198 1115268908 -1782690959 -29242483 -1128438083 310066819 224059120 1103112094 972020211 1875155330
REM
REM S 3|1.8|5|6|7|30:31:32(qc=5)
REM O 2|1.5|12|13|15|20:21(qc=5)
REM Li 1|1.3|8|9|10|10U:20(qc=5)
REM Fe 3|2.2|2.0|1.0|8|9|10|40:41:32(qc=5)
REM Fe d:4.0 
REM
CELL 1.54180    6.55421    7.34250   14.16423   90.00000  140.57516   90.00000
LATT -1
SFAC Li O  S  Fe 
Li     1  0.4068590000000  0.3796870000000 -0.3704160000000 1.0  -0.05
Li     1 -0.4068590000000  0.3796870000000  0.3704160000000 1.0  -0.05
Li     1 -0.1286450000000 -0.1847210000000  0.0929810000000 1.0  -0.01
Li     1  0.1286450000000 -0.1847210000000 -0.0929810000000 1.0  -0.01
Li     1  0.4983830000000  0.5263450000000 -0.0829630000000 1.0  -0.00
Li     1 -0.4983830000000  0.5263450000000  0.0829630000000 1.0  -0.00
Li     1 -0.8554130000000 -0.4600260000000  0.1356280000000 1.0   0.01
Li     1  0.8554130000000 -0.4600260000000 -0.1356280000000 1.0   0.01
Li     1 -0.1422030000000 -0.4433760000000 -0.3270270000000 1.0  -0.00
Li     1  0.1422030000000 -0.4433760000000  0.3270270000000 1.0  -0.00
O      2  0.5492530000000  0.3895500000000 -0.1935780000000 1.0   0.09
O      2 -0.5492530000000  0.3895500000000  0.1935780000000 1.0   0.09
O      2  0.4170700000000 -0.5202790000000  0.5177870000000 1.0   0.00
O      2 -0.4170700000000 -0.5202790000000 -0.5177870000000 1.0   0.00
O      2  0.1414020000000 -0.4167960000000 -0.1289160000000 1.0  -0.00
O      2 -0.1414020000000 -0.4167960000000  0.1289160000000 1.0  -0.00
S      3  0.6584670000000 -0.1436980000000 -0.1458540000000 1.0  -0.39
S      3 -0.6584670000000 -0.1436980000000  0.1458540000000 1.0  -0.39
Fe     4 -0.3226440000000  0.1547130000000 -0.1325020000000 1.0   3.35
Fe     4  0.3226440000000  0.1547130000000  0.1325020000000 1.0   3.35
END
