TITL LFSO-Li5FeSO3-201026-201828-4425ac -0.0053 148.100837 -3.47729685E+003 2.99926 3.56664 10 (P3) n - 1
REM
REM Run started: Mon, 26 Oct 2020 20:39:41 +0000 in /scratch/scratch/uccabz1/launch_tmp/launcher_2020-10-26-20-18-25-988289
REM CASTEP 19.11| from code version Version unavailable
REM Functional Perdew Burke Ernzerhof Relativity Koelling-Harmon Dispersion off
REM Cut-off 340.0000 eV Grid scale 1.7500 Gmax 16.5316 1/A FBSC none
REM MP grid 4 3 3 Offset 0.000 0.000 0.000 No. kpts 10 Spacing 0.07
REM Total runtime: 955.85 s
REM Overall efficiency: 66.5 %
REM
REM
REM
REM compiler GCC version 4.9.2
REM options -cpp -iprefix /scratch/UCL/applications/gcc/4.9.2/bin/../lib/gcc/x86_64-unknown-linux-gnu/4.9.2/ -mtune=corei7 -march=x86-64 -g -O2
REM COMMAND_LINE
REM seed -1357561786 -11113152 -1127991924 -1185611347 524389757 222467688 2100258912 1312613823 -413358340 -543291531 -498606526 220831445
REM
REM S 3|1.8|5|6|7|30:31:32(qc=5)
REM O 2|1.5|12|13|15|20:21(qc=5)
REM Li 1|1.3|8|9|10|10U:20(qc=5)
REM Fe 3|2.2|2.0|1.0|8|9|10|40:41:32(qc=5)
REM Fe d:4.0 
REM
CELL 1.54180    4.26161    6.33470    6.33470  120.00000   90.00000   90.00000
LATT -1
SFAC Li O  S  Fe 
Li     1  0.0583880000000  0.0202170000000  0.3232970000000 1.0  -0.03
Li     1  0.0583880000000  0.3030810000000 -0.0202170000000 1.0  -0.03
Li     1  0.0583880000000 -0.3232970000000 -0.3030810000000 1.0  -0.03
Li     1 -0.4736210000000  0.3333330000000 -0.3333330000000 1.0   0.06
Li     1  0.5194900000000 -0.3333330000000  0.3333330000000 1.0   0.00
O      2 -0.4930450000000 -0.3230490000000 -0.2153340000000 1.0  -0.03
O      2 -0.4930450000000  0.1077160000000  0.3230490000000 1.0  -0.03
O      2 -0.4930450000000  0.2153340000000 -0.1077160000000 1.0  -0.03
S      3  0.0180060000000 -0.3333330000000  0.3333330000000 1.0  -0.07
Fe     4 -0.4789660000000  0.0000000000000 -0.0000000000000 1.0   3.18
END
