TITL LFSO-Li3FeS2O-201025-035045-ba9057 -0.0328 125.657163 -2.50636062E+003 3.77693 4.03726 7 (C2) n - 1
REM
REM Run started: Sun, 25 Oct 2020 04:14:13 +0000 in /scratch/scratch/uccabz1/launch_tmp/launcher_2020-10-25-03-50-43-506071
REM CASTEP 19.11| from code version Version unavailable
REM Functional Perdew Burke Ernzerhof Relativity Koelling-Harmon Dispersion off
REM Cut-off 340.0000 eV Grid scale 1.7500 Gmax 16.5316 1/A FBSC none
REM MP grid 5 3 3 Offset 0.000 0.000 0.000 No. kpts 16 Spacing 0.07
REM Total runtime: 1633.68 s
REM Overall efficiency: 90.6667 %
REM
REM
REM
REM compiler GCC version 4.9.2
REM options -cpp -iprefix /scratch/UCL/applications/gcc/4.9.2/bin/../lib/gcc/x86_64-unknown-linux-gnu/4.9.2/ -mtune=corei7 -march=x86-64 -g -O2
REM COMMAND_LINE
REM seed 1647291759 909472139 2107613203 1027906160 -502001231 -1720245756 879755115 1744783309 -758317850 1737439716 2054401034 1602545247
REM
REM S 3|1.8|5|6|7|30:31:32(qc=5)
REM O 2|1.5|12|13|15|20:21(qc=5)
REM Li 1|1.3|8|9|10|10U:20(qc=5)
REM Fe 3|2.2|2.0|1.0|8|9|10|40:41:32(qc=5)
REM Fe d:4.0 
REM
CELL 1.54180    3.44715    6.54454    6.54454   66.64015  108.25659  108.25659
LATT -1
SFAC Li O  S  Fe 
Li     1  0.3523780000000 -0.6228930000000  0.3052260000000 1.0  -0.02
Li     1 -0.3523780000000 -0.3052260000000  0.6228930000000 1.0  -0.02
Li     1 -0.5000000000000  0.1920420000000 -0.1920420000000 1.0  -0.08
O      2 -0.5000000000000  0.4354800000000 -0.4354800000000 1.0   0.43
S      3  0.3195260000000 -0.2647730000000 -0.0528690000000 1.0  -0.03
S      3 -0.3195260000000  0.0528690000000  0.2647730000000 1.0  -0.03
Fe     4  0.0000000000000 -0.1305280000000  0.1305280000000 1.0   3.53
END
