TITL LFSO-Li5FeS2O2-201026-230116-7eae83 -0.0068 279.517894 -6.69042687E+003 9.99832 10.0642 20 (Fdd2) n - 1
REM
REM Run started: Wed, 28 Oct 2020 01:05:08 +0000 in /lustre/scratch/uccabz1/launch_tmp/launcher_2020-10-27-23-20-19-731319
REM CASTEP 20.1 from code version af48c487+ pr-geom-scf-spinfix Tue Jun 2 15:39:59 2020 +0100
REM Functional Perdew Burke Ernzerhof Relativity Koelling-Harmon Dispersion off
REM Cut-off 340.0000 eV Grid scale 1.7500 Gmax 16.5316 1/A FBSC none
REM MP grid 3 3 3 Offset 0.000 0.000 0.000 No. kpts 8 Spacing 0.07
REM Total runtime: 6421.1 s
REM Overall efficiency: 77.75 %
REM
REM
REM
REM compiler GCC version 4.9.2
REM options -cpp -iprefix /lustre/shared/ucl/apps/gcc/4.9.2/bin/../lib/gcc/x86_64-unknown-linux-gnu/4.9.2/ -mtune=corei7 -march=x86-64 -g -Og
REM COMMAND_LINE
REM seed 2060844391 1336889879 -1917091707 -409910749 -2040322895 -1949327280 -104260264 -57593500 -201478331 -599685412 -603782874 2018810024
REM
REM S 3|1.8|5|6|7|30:31:32(qc=5)
REM O 2|1.5|12|13|15|20:21(qc=5)
REM Li 1|1.3|8|9|10|10U:20(qc=5)
REM Fe 3|2.2|2.0|1.0|8|9|10|40:41:32(qc=5)
REM Fe d:4.0 
REM
CELL 1.54180    7.15555    7.15555    7.11495  108.79223  108.79223  111.06220
LATT -1
SFAC Li O  S  Fe 
Li     1  0.0002880000000  0.2597230000000 -0.1306880000000 1.0  -0.03
Li     1 -0.2597230000000 -0.0002880000000  0.1306880000000 1.0  -0.03
Li     1 -0.1190230000000 -0.3595890000000 -0.3693120000000 1.0  -0.03
Li     1  0.3595890000000  0.1190230000000  0.3693120000000 1.0  -0.03
Li     1  0.5150840000000  0.2253720000000  0.0722150000000 1.0   0.01
Li     1 -0.2253720000000 -0.5150840000000 -0.0722150000000 1.0   0.01
Li     1  0.1928700000000  0.4031570000000  0.4277850000000 1.0   0.01
Li     1 -0.4031570000000 -0.1928700000000 -0.4277850000000 1.0   0.01
Li     1  0.0224920000000 -0.0224920000000  0.0000000000000 1.0   0.04
Li     1 -0.2275080000000  0.2275080000000  0.5000000000000 1.0   0.04
O      2 -0.5034970000000  0.0094860000000  0.1975490000000 1.0   0.22
O      2 -0.0094860000000  0.5034970000000 -0.1975490000000 1.0   0.22
O      2  0.0489550000000  0.0619370000000  0.3024510000000 1.0   0.22
O      2 -0.0619370000000 -0.0489550000000 -0.3024510000000 1.0   0.22
S      3 -0.0773450000000  0.5236550000000  0.3068930000000 1.0   0.25
S      3 -0.5236550000000  0.0773450000000 -0.3068930000000 1.0   0.25
S      3  0.3657620000000  0.4667620000000  0.1931070000000 1.0   0.25
S      3 -0.4667620000000 -0.3657620000000 -0.1931070000000 1.0   0.25
Fe     4  0.3231770000000 -0.3231770000000  0.0000000000000 1.0   4.05
Fe     4  0.0731770000000 -0.0731770000000  0.5000000000000 1.0   4.05
END
