TITL LFSO-Li5FeSO3-201026-024633-752366 0.0563 172.997593 -3.47625484E+003 3.00000 3.33702 10 (P3m1) n - 1
REM
REM Run started: Mon, 26 Oct 2020 03:43:55 +0000 in /lustre/scratch/uccabz1/launch_tmp/launcher_2020-10-26-02-46-31-459468
REM CASTEP 20.1 from code version af48c487+ pr-geom-scf-spinfix Tue Jun 2 15:39:59 2020 +0100
REM Functional Perdew Burke Ernzerhof Relativity Koelling-Harmon Dispersion off
REM Cut-off 340.0000 eV Grid scale 1.7500 Gmax 16.5316 1/A FBSC none
REM MP grid 3 3 3 Offset 0.000 0.000 0.000 No. kpts 8 Spacing 0.07
REM Total runtime: 3516.64 s
REM Overall efficiency: 79.6 %
REM
REM
REM
REM compiler GCC version 4.9.2
REM options -cpp -iprefix /lustre/shared/ucl/apps/gcc/4.9.2/bin/../lib/gcc/x86_64-unknown-linux-gnu/4.9.2/ -mtune=corei7 -march=x86-64 -g -Og
REM COMMAND_LINE
REM seed 1038292373 -1460575865 -269557202 -993359419 2061357179 -71058410 -651850213 -1556544657 1654300218 1379275300 -1374427140 1678193307
REM
REM S 3|1.8|5|6|7|30:31:32(qc=5)
REM O 2|1.5|12|13|15|20:21(qc=5)
REM Li 1|1.3|8|9|10|10U:20(qc=5)
REM Fe 3|2.2|2.0|1.0|8|9|10|40:41:32(qc=5)
REM Fe d:4.0 
REM
CELL 1.54180    4.87366    6.40217    6.40217  120.00000   90.00000   90.00000
LATT -1
SFAC Li O  S  Fe 
Li     1  0.4391580000000  0.1887850000000  0.3768410000000 1.0   0.03
Li     1  0.4391580000000 -0.3768410000000 -0.1880550000000 1.0   0.03
Li     1  0.4391580000000  0.1880550000000 -0.1887850000000 1.0   0.03
Li     1  0.1006100000000 -0.3333330000000  0.3333330000000 1.0  -0.13
Li     1 -0.2300450000000  0.0000000000000 -0.0000000000000 1.0   0.00
O      2 -0.4463380000000  0.5071730000000  0.0155700000000 1.0   0.03
O      2 -0.4463380000000 -0.0155700000000  0.4916030000000 1.0   0.03
O      2 -0.4463380000000 -0.4916030000000 -0.5071730000000 1.0   0.03
S      3  0.2384350000000  0.0000000000000 -0.0000000000000 1.0  -0.02
Fe     4  0.5893230000000 -0.3333330000000  0.3333330000000 1.0   2.96
END
