TITL LFSO-Li4Fe3S3O2-201028-225044-528402 -0.0738 313.579857 -5.17091273E+003 10.9981 11.5289 12 (P2) n - 1
REM
REM Run started: Thu, 29 Oct 2020 03:37:45 +0000 in /lustre/scratch/uccabz1/launch_tmp/launcher_2020-10-28-22-50-42-491670
REM CASTEP 20.1 from code version af48c487+ pr-geom-scf-spinfix Tue Jun 2 15:39:59 2020 +0100
REM Functional Perdew Burke Ernzerhof Relativity Koelling-Harmon Dispersion off
REM Cut-off 340.0000 eV Grid scale 1.7500 Gmax 16.5316 1/A FBSC none
REM MP grid 4 2 2 Offset 0.000 0.000 0.000 No. kpts 4 Spacing 0.07
REM Total runtime: 19240.6 s
REM Overall efficiency: 84.9167 %
REM
REM
REM
REM compiler GCC version 4.9.2
REM options -cpp -iprefix /lustre/shared/ucl/apps/gcc/4.9.2/bin/../lib/gcc/x86_64-unknown-linux-gnu/4.9.2/ -mtune=corei7 -march=x86-64 -g -Og
REM COMMAND_LINE
REM seed -1093178031 -1016353793 655551489 1393182126 -546893667 448953113 1772599836 -1657347017 -294413034 619996549 -1230710102 235429261
REM
REM S 3|1.8|5|6|7|30:31:32(qc=5)
REM O 2|1.5|12|13|15|20:21(qc=5)
REM Li 1|1.3|8|9|10|10U:20(qc=5)
REM Fe 3|2.2|2.0|1.0|8|9|10|40:41:32(qc=5)
REM Fe d:4.0 
REM
CELL 1.54180    3.75559    8.62497    9.78069   90.00000   90.00000   81.80549
LATT -1
SFAC Li O  S  Fe 
Li     1  0.1733710000000  0.3323020000000  0.3607340000000 1.0   0.00
Li     1 -0.1733710000000 -0.3323020000000  0.3607340000000 1.0   0.00
Li     1  0.1874940000000  0.2153800000000  0.0835780000000 1.0  -0.01
Li     1 -0.1874940000000 -0.2153800000000  0.0835780000000 1.0  -0.01
O      2 -0.3137840000000 -0.3372090000000 -0.0555440000000 1.0   0.15
O      2  0.3137840000000  0.3372090000000 -0.0555440000000 1.0   0.15
S      3 -0.3199130000000  0.2824450000000  0.2247040000000 1.0  -0.09
S      3  0.3199130000000 -0.2824450000000  0.2247040000000 1.0  -0.09
S      3 -0.5000000000000 -0.5000000000000  0.5712250000000 1.0   0.07
Fe     4  0.2959510000000  0.3893890000000 -0.2342750000000 1.0   3.57
Fe     4 -0.2959510000000 -0.3893890000000 -0.2342750000000 1.0   3.57
Fe     4 -0.5000000000000 -0.5000000000000  0.0657610000000 1.0   3.68
END
