TITL LFSO-Li6FeSO3-201028-051100-6bba76 0.0020 119.150706 -3.67974146E+003 3.95213 4.02428 11 (P2/m) n - 1
REM
REM Run started: Wed, 28 Oct 2020 05:26:57 +0000 in /scratch/scratch/uccabz1/launch_tmp/launcher_2020-10-28-05-10-58-957037
REM CASTEP 19.11| from code version Version unavailable
REM Functional Perdew Burke Ernzerhof Relativity Koelling-Harmon Dispersion off
REM Cut-off 340.0000 eV Grid scale 1.7500 Gmax 16.5316 1/A FBSC none
REM MP grid 5 3 3 Offset 0.000 0.000 0.000 No. kpts 16 Spacing 0.07
REM Total runtime: 1167.92 s
REM Overall efficiency: 86.2 %
REM
REM
REM
REM compiler GCC version 4.9.2
REM options -cpp -iprefix /scratch/UCL/applications/gcc/4.9.2/bin/../lib/gcc/x86_64-unknown-linux-gnu/4.9.2/ -mtune=corei7 -march=x86-64 -g -O2
REM COMMAND_LINE
REM seed -851972311 -440407437 278313821 -2013696617 1207730602 1905024483 -1561039680 52097579 283236593 -2093946270 2039594941 -861157191
REM
REM S 3|1.8|5|6|7|30:31:32(qc=5)
REM O 2|1.5|12|13|15|20:21(qc=5)
REM Li 1|1.3|8|9|10|10U:20(qc=5)
REM Fe 3|2.2|2.0|1.0|8|9|10|40:41:32(qc=5)
REM Fe d:4.0 
REM
CELL 1.54180    3.44961    7.69711    5.04647   90.00000   90.00000  117.22412
LATT -1
SFAC Li O  S  Fe 
Li     1  0.2617440000000  0.2623020000000 -0.2545730000000 1.0  -0.04
Li     1 -0.2617440000000 -0.2623020000000 -0.2545730000000 1.0  -0.04
Li     1 -0.2617440000000 -0.2623020000000  0.2545730000000 1.0  -0.04
Li     1  0.2617440000000  0.2623020000000  0.2545730000000 1.0  -0.04
Li     1  0.0000000000000  0.5000000000000 -0.2521890000000 1.0   0.02
Li     1  0.0000000000000 -0.5000000000000  0.2521890000000 1.0   0.02
O      2 -0.2234460000000  0.2845300000000  0.0000000000000 1.0   0.09
O      2  0.2234460000000 -0.2845300000000  0.0000000000000 1.0   0.09
O      2  0.5000000000000  0.5000000000000  0.5000000000000 1.0   0.01
S      3  0.5000000000000  0.0000000000000 -0.5000000000000 1.0   0.12
Fe     4 -0.5000000000000  0.0000000000000  0.0000000000000 1.0   3.76
END
