TITL LFSO-Li4Fe3S4O-201029-011725-2ff393 -0.3067 620.795818 -1.00736896E+004 8.00270 22.2857 24 (Pma2) n - 1
REM
REM Run started: Thu, 29 Oct 2020 06:51:26 +0000 in /lustre/scratch/uccabz1/launch_tmp/launcher_2020-10-29-01-17-23-761108
REM CASTEP 20.1 from code version af48c487+ pr-geom-scf-spinfix Tue Jun 2 15:39:59 2020 +0100
REM Functional Perdew Burke Ernzerhof Relativity Koelling-Harmon Dispersion off
REM Cut-off 340.0000 eV Grid scale 1.7500 Gmax 16.5316 1/A FBSC none
REM MP grid 4 2 2 Offset 0.000 0.000 0.000 No. kpts 2 Spacing 0.07
REM Total runtime: 20018.7 s
REM Overall efficiency: 78.8462 %
REM
REM
REM
REM compiler GCC version 4.9.2
REM options -cpp -iprefix /lustre/shared/ucl/apps/gcc/4.9.2/bin/../lib/gcc/x86_64-unknown-linux-gnu/4.9.2/ -mtune=corei7 -march=x86-64 -g -Og
REM COMMAND_LINE
REM seed 75285082 2145556193 -1614360795 732618069 -2136221870 264494676 -71893451 -504784394 2091465652 374383948 1141756336 -1040596909
REM
REM S 3|1.8|5|6|7|30:31:32(qc=5)
REM O 2|1.5|12|13|15|20:21(qc=5)
REM Li 1|1.3|8|9|10|10U:20(qc=5)
REM Fe 3|2.2|2.0|1.0|8|9|10|40:41:32(qc=5)
REM Fe d:4.0 
REM
CELL 1.54180    4.63330   10.33351   12.96615   90.00000   90.00000   90.00000
LATT -1
SFAC Li O  S  Fe 
Li     1  0.0632710000000 -0.5100650000000  0.1542740000000 1.0  -0.01
Li     1  0.0632710000000  0.5100650000000 -0.1542740000000 1.0  -0.01
Li     1  0.0632710000000 -0.0100650000000 -0.1542740000000 1.0  -0.01
Li     1  0.0632710000000  0.0100650000000  0.1542740000000 1.0  -0.01
Li     1  0.3365840000000 -0.3756850000000 -0.4960360000000 1.0   0.02
Li     1  0.3365840000000  0.3756850000000  0.4960360000000 1.0   0.02
Li     1  0.3365840000000  0.1243150000000  0.4960360000000 1.0   0.02
Li     1  0.3365840000000 -0.1243150000000 -0.4960360000000 1.0   0.02
O      2  0.4930790000000  0.2500000000000 -0.4135410000000 1.0  -0.01
O      2  0.4930790000000 -0.2500000000000  0.4135410000000 1.0  -0.01
S      3  0.0618120000000  0.0263570000000 -0.3590990000000 1.0   0.05
S      3  0.0618120000000 -0.0263570000000  0.3590990000000 1.0   0.05
S      3  0.0618120000000  0.5263570000000  0.3590990000000 1.0   0.05
S      3  0.0618120000000 -0.5263570000000 -0.3590990000000 1.0   0.05
S      3 -0.4350520000000  0.0309280000000 -0.1331200000000 1.0   0.08
S      3 -0.4350520000000 -0.0309280000000  0.1331200000000 1.0   0.08
S      3 -0.4350520000000  0.5309280000000  0.1331200000000 1.0   0.08
S      3 -0.4350520000000 -0.5309280000000 -0.1331200000000 1.0   0.08
Fe     4 -0.4362720000000  0.1009570000000 -0.2959590000000 1.0   3.67
Fe     4 -0.4362720000000 -0.1009570000000  0.2959590000000 1.0   3.67
Fe     4 -0.4362720000000 -0.3990430000000  0.2959590000000 1.0   3.67
Fe     4 -0.4362720000000  0.3990430000000 -0.2959590000000 1.0   3.67
Fe     4  0.0804590000000 -0.2500000000000  0.3286100000000 1.0  -3.63
Fe     4  0.0804590000000  0.2500000000000 -0.3286100000000 1.0  -3.63
END
