TITL LFSO-Li2Fe2S2O-201023-210726-e28877 0.0027 141.099972 -3.16881578E+003 7.99534 8.05994 7 (P2) n - 1
REM
REM Run started: Fri, 23 Oct 2020 22:12:44 +0100 in /lustre/scratch/uccabz1/launch_tmp/launcher_2020-10-23-20-07-25-035904
REM CASTEP 20.1 from code version af48c487+ pr-geom-scf-spinfix Tue Jun 2 15:39:59 2020 +0100
REM Functional Perdew Burke Ernzerhof Relativity Koelling-Harmon Dispersion off
REM Cut-off 340.0000 eV Grid scale 1.7500 Gmax 16.5316 1/A FBSC none
REM MP grid 4 5 2 Offset 0.000 0.000 0.000 No. kpts 10 Spacing 0.07
REM Total runtime: 4257.08 s
REM Overall efficiency: 78.125 %
REM
REM
REM
REM compiler GCC version 4.9.2
REM options -cpp -iprefix /lustre/shared/ucl/apps/gcc/4.9.2/bin/../lib/gcc/x86_64-unknown-linux-gnu/4.9.2/ -mtune=corei7 -march=x86-64 -g -Og
REM COMMAND_LINE
REM seed -1085856214 1836618826 -2046370769 -2041571229 535407305 -1220797831 1432964539 -903759392 1810086177 -1290222837 51623742 -1003035538
REM
REM S 3|1.8|5|6|7|30:31:32(qc=5)
REM O 2|1.5|12|13|15|20:21(qc=5)
REM Li 1|1.3|8|9|10|10U:20(qc=5)
REM Fe 3|2.2|2.0|1.0|8|9|10|40:41:32(qc=5)
REM Fe d:4.0 
REM
CELL 1.54180    3.82401    3.29347   11.20484   90.88116   90.00000   90.00000
LATT -1
SFAC Li O  S  Fe 
Li     1 -0.6973650000000  0.1400390000000 -0.1698740000000 1.0  -0.01
Li     1 -0.6973650000000 -0.1400390000000  0.1698740000000 1.0  -0.01
O      2  0.7658420000000  0.5000000000000  0.5000000000000 1.0   0.24
S      3 -0.1987160000000 -0.3432240000000 -0.2092350000000 1.0   0.15
S      3 -0.1987160000000  0.3432240000000  0.2092350000000 1.0   0.15
Fe     4 -0.2254670000000  0.1349890000000 -0.3682550000000 1.0   3.74
Fe     4 -0.2254670000000 -0.1349890000000  0.3682550000000 1.0   3.74
END
