TITL LFSO-Li4Fe3S3O2-201029-043531-7da39d -0.2396 448.371832 -1.03442827E+004 20.0000 20.9081 24 (Pc) n - 1
REM
REM Run started: Thu, 29 Oct 2020 11:09:47 +0000 in /lustre/scratch/uccabz1/launch_tmp/launcher_2020-10-29-09-56-24-565863
REM CASTEP 20.1 from code version af48c487+ pr-geom-scf-spinfix Tue Jun 2 15:39:59 2020 +0100
REM Functional Perdew Burke Ernzerhof Relativity Koelling-Harmon Dispersion off
REM Cut-off 340.0000 eV Grid scale 1.7500 Gmax 16.5316 1/A FBSC none
REM MP grid 3 2 3 Offset 0.000 0.000 0.000 No. kpts 6 Spacing 0.07
REM Total runtime: 24711.4 s
REM Overall efficiency: 80.1538 %
REM
REM
REM
REM compiler GCC version 4.9.2
REM options -cpp -iprefix /lustre/shared/ucl/apps/gcc/4.9.2/bin/../lib/gcc/x86_64-unknown-linux-gnu/4.9.2/ -mtune=corei7 -march=x86-64 -g -Og
REM COMMAND_LINE
REM seed 2114073069 1591597817 -343008555 134842317 514575674 -120413669 -1200940852 -402004742 -277891932 -1760178654 287989422 1998664793
REM
REM S 3|1.8|5|6|7|30:31:32(qc=5)
REM O 2|1.5|12|13|15|20:21(qc=5)
REM Li 1|1.3|8|9|10|10U:20(qc=5)
REM Fe 3|2.2|2.0|1.0|8|9|10|40:41:32(qc=5)
REM Fe d:4.0 
REM
CELL 1.54180    6.89827   11.17826    5.98107  103.54734   90.00000   90.00000
LATT -1
SFAC Li O  S  Fe 
Li     1 -0.1868040000000 -0.1875840000000  0.1084170000000 1.0  -0.08
Li     1  0.1868040000000  0.3124160000000  0.1084170000000 1.0  -0.08
Li     1 -0.1115740000000  0.0251920000000  0.0772950000000 1.0   0.01
Li     1  0.1115740000000 -0.4748080000000  0.0772950000000 1.0   0.01
Li     1 -0.5352850000000  0.4396310000000  0.0108820000000 1.0   0.00
Li     1  0.5352850000000 -0.0603690000000  0.0108820000000 1.0   0.00
Li     1 -0.5603830000000 -0.3738620000000  0.4098620000000 1.0  -0.04
Li     1  0.5603830000000  0.1261380000000  0.4098620000000 1.0  -0.04
O      2 -0.2205100000000 -0.1134450000000 -0.1703110000000 1.0   0.11
O      2  0.2205100000000  0.3865550000000 -0.1703110000000 1.0   0.11
O      2 -0.3071170000000 -0.0223940000000  0.2759500000000 1.0   0.05
O      2  0.3071170000000  0.4776060000000  0.2759500000000 1.0   0.05
S      3 -0.2097120000000 -0.4102280000000  0.2846600000000 1.0   0.00
S      3  0.2097120000000  0.0897720000000  0.2846600000000 1.0   0.00
S      3  0.3205520000000 -0.1905200000000 -0.2901080000000 1.0  -0.04
S      3 -0.3205520000000  0.3094800000000 -0.2901080000000 1.0  -0.04
S      3  0.1255750000000 -0.2883850000000 -0.1050610000000 1.0   0.04
S      3 -0.1255750000000  0.2116150000000 -0.1050610000000 1.0   0.04
Fe     4 -0.1867330000000 -0.5526710000000 -0.4859410000000 1.0   3.09
Fe     4  0.1867330000000 -0.0526710000000 -0.4859410000000 1.0   3.09
Fe     4  0.1174340000000  0.2350280000000 -0.3779660000000 1.0   3.57
Fe     4 -0.1174340000000 -0.2649720000000 -0.3779660000000 1.0   3.57
Fe     4  0.2616350000000  0.4410090000000 -0.4418650000000 1.0   3.28
Fe     4 -0.2616350000000 -0.0589910000000 -0.4418650000000 1.0   3.28
END
