TITL LFSO-Li6FeSO3-201028-053826-20581a -0.0088 303.088057 -7.35916137E+003 8.00000 8.24379 22 (R3) n - 1
REM
REM Run started: Wed, 28 Oct 2020 10:48:16 +0000 in /lustre/scratch/uccabz1/launch_tmp/launcher_2020-10-28-05-38-24-847959
REM CASTEP 20.1 from code version af48c487+ pr-geom-scf-spinfix Tue Jun 2 15:39:59 2020 +0100
REM Functional Perdew Burke Ernzerhof Relativity Koelling-Harmon Dispersion off
REM Cut-off 340.0000 eV Grid scale 1.7500 Gmax 16.5316 1/A FBSC none
REM MP grid 3 3 3 Offset 0.000 0.000 0.000 No. kpts 6 Spacing 0.07
REM Total runtime: 16808.6 s
REM Overall efficiency: 97 %
REM
REM
REM
REM compiler GCC version 4.9.2
REM options -cpp -iprefix /lustre/shared/ucl/apps/gcc/4.9.2/bin/../lib/gcc/x86_64-unknown-linux-gnu/4.9.2/ -mtune=corei7 -march=x86-64 -g -Og
REM COMMAND_LINE
REM seed -809626805 -717027940 -139979174 -1747729550 -1591811236 -213768911 1453381387 -463899986 737331096 66081889 -309912386 -1675747802
REM
REM S 3|1.8|5|6|7|30:31:32(qc=5)
REM O 2|1.5|12|13|15|20:21(qc=5)
REM Li 1|1.3|8|9|10|10U:20(qc=5)
REM Fe 3|2.2|2.0|1.0|8|9|10|40:41:32(qc=5)
REM Fe d:4.0 
REM
CELL 1.54180    6.82491    6.82491    6.82491   79.27442   79.27442   79.27442
LATT -1
SFAC Li O  S  Fe 
Li     1 -0.0133860000000  0.0382380000000  0.4038330000000 1.0  -0.03
Li     1  0.4038330000000 -0.0133860000000  0.0382380000000 1.0  -0.03
Li     1  0.0382380000000  0.4038330000000 -0.0133860000000 1.0  -0.03
Li     1 -0.0427750000000 -0.2929520000000  0.1219900000000 1.0  -0.02
Li     1  0.1219900000000 -0.0427750000000 -0.2929520000000 1.0  -0.02
Li     1 -0.2929520000000  0.1219900000000 -0.0427750000000 1.0  -0.02
Li     1 -0.3473730000000  0.3772550000000  0.2325330000000 1.0  -0.01
Li     1  0.2325330000000 -0.3473730000000  0.3772550000000 1.0  -0.01
Li     1  0.3772550000000  0.2325330000000 -0.3473730000000 1.0  -0.01
Li     1 -0.5439370000000  0.5692330000000 -0.0941690000000 1.0  -0.02
Li     1 -0.0941690000000 -0.5439370000000  0.5692330000000 1.0  -0.02
Li     1  0.5692330000000 -0.0941690000000 -0.5439370000000 1.0  -0.02
O      2 -0.0001780000000 -0.2336310000000 -0.4451430000000 1.0   0.12
O      2 -0.4451430000000 -0.0001780000000 -0.2336310000000 1.0   0.12
O      2 -0.2336310000000 -0.4451430000000 -0.0001780000000 1.0   0.12
O      2 -0.4667950000000  0.1105880000000  0.2111480000000 1.0   0.12
O      2  0.2111480000000 -0.4667950000000  0.1105880000000 1.0   0.12
O      2  0.1105880000000  0.2111480000000 -0.4667950000000 1.0   0.12
S      3 -0.4611230000000 -0.4611230000000 -0.4611230000000 1.0   0.01
S      3  0.0458600000000  0.0458600000000  0.0458600000000 1.0   0.02
Fe     4  0.2774590000000  0.2774590000000  0.2774590000000 1.0   3.74
Fe     4 -0.2241440000000 -0.2241440000000 -0.2241440000000 1.0   3.73
END
