TITL LFSO-LiFe3S4O-201028-095020-daa0de 0.0726 173.899163 -4.43677681E+003 -9.01936 11.0472 9 (Cmm2) n - 1
REM
REM Run started: Wed, 28 Oct 2020 11:16:11 +0000 in /scratch/scratch/uccabz1/launch_tmp/launcher_2020-10-28-09-50-19-227456
REM CASTEP 19.11| from code version Version unavailable
REM Functional Perdew Burke Ernzerhof Relativity Koelling-Harmon Dispersion off
REM Cut-off 340.0000 eV Grid scale 1.7500 Gmax 16.5316 1/A FBSC none
REM MP grid 4 3 3 Offset 0.000 0.000 0.000 No. kpts 8 Spacing 0.07
REM Total runtime: 5164.1 s
REM Overall efficiency: 70.0769 %
REM
REM
REM
REM compiler GCC version 4.9.2
REM options -cpp -iprefix /scratch/UCL/applications/gcc/4.9.2/bin/../lib/gcc/x86_64-unknown-linux-gnu/4.9.2/ -mtune=corei7 -march=x86-64 -g -O2
REM COMMAND_LINE
REM seed -929207552 -1210360009 84849276 247164080 299233470 1420586503 -1183522825 620633364 83457543 409092197 -2100071324 -184119647
REM
REM S 3|1.8|5|6|7|30:31:32(qc=5)
REM O 2|1.5|12|13|15|20:21(qc=5)
REM Li 1|1.3|8|9|10|10U:20(qc=5)
REM Fe 3|2.2|2.0|1.0|8|9|10|40:41:32(qc=5)
REM Fe d:4.0 
REM
CELL 1.54180    3.71035    6.77367    7.70367  116.08084   90.00000   90.00000
LATT -1
SFAC Li O  S  Fe 
Li     1  0.5432940000000  0.0000000000000  0.0000000000000 1.0  -0.01
O      2  0.3246760000000 -0.5000000000000  0.0000000000000 1.0   0.18
S      3 -0.1717940000000 -0.1027900000000  0.2739030000000 1.0   0.27
S      3 -0.1717940000000  0.1027900000000 -0.2739030000000 1.0   0.27
S      3 -0.1717940000000 -0.3766940000000 -0.2739030000000 1.0   0.27
S      3 -0.1717940000000  0.3766940000000  0.2739030000000 1.0   0.27
Fe     4 -0.2668900000000  0.2549400000000  0.5098800000000 1.0  -3.42
Fe     4 -0.2668900000000 -0.2549400000000 -0.5098800000000 1.0  -3.42
Fe     4 -0.1738200000000 -0.5000000000000  0.0000000000000 1.0  -3.42
END
