TITL LFSO-Li6FeS3O-201027-111615-9d09a1 -0.0877 572.111047 -6.81980287E+003 7.94899 8.38202 22 (P2/c) n - 1
REM
REM Run started: Tue, 27 Oct 2020 17:46:24 +0000 in /lustre/scratch/uccabz1/launch_tmp/launcher_2020-10-27-11-16-13-879260
REM CASTEP 20.1 from code version af48c487+ pr-geom-scf-spinfix Tue Jun 2 15:39:59 2020 +0100
REM Functional Perdew Burke Ernzerhof Relativity Koelling-Harmon Dispersion off
REM Cut-off 340.0000 eV Grid scale 1.7500 Gmax 16.5316 1/A FBSC none
REM MP grid 3 2 2 Offset 0.000 0.000 0.000 No. kpts 4 Spacing 0.07
REM Total runtime: 25992.1 s
REM Overall efficiency: 87.5 %
REM
REM
REM
REM compiler GCC version 4.9.2
REM options -cpp -iprefix /lustre/shared/ucl/apps/gcc/4.9.2/bin/../lib/gcc/x86_64-unknown-linux-gnu/4.9.2/ -mtune=corei7 -march=x86-64 -g -Og
REM COMMAND_LINE
REM seed 2108576525 -281165563 1981626451 264462924 69626938 -1611999612 -840647457 -678741128 2094712468 -292636979 -212731797 1138466607
REM
REM S 3|1.8|5|6|7|30:31:32(qc=5)
REM O 2|1.5|12|13|15|20:21(qc=5)
REM Li 1|1.3|8|9|10|10U:20(qc=5)
REM Fe 3|2.2|2.0|1.0|8|9|10|40:41:32(qc=5)
REM Fe d:4.0 
REM
CELL 1.54180    6.53821    8.95596   10.63367   66.75287   90.00000   90.00000
LATT -1
SFAC Li O  S  Fe 
Li     1  0.1282060000000  0.4076730000000 -0.3500010000000 1.0   0.01
Li     1  0.1282060000000  0.0923270000000 -0.1499990000000 1.0   0.01
Li     1 -0.1282060000000 -0.4076730000000  0.3500010000000 1.0   0.01
Li     1 -0.1282060000000 -0.0923270000000  0.1499990000000 1.0   0.01
Li     1  0.2947790000000 -0.4096880000000  0.3308940000000 1.0   0.01
Li     1  0.2947790000000 -0.0903120000000  0.1691060000000 1.0   0.01
Li     1 -0.2947790000000  0.4096880000000 -0.3308940000000 1.0   0.01
Li     1 -0.2947790000000  0.0903120000000 -0.1691060000000 1.0   0.01
Li     1 -0.0672220000000  0.3326430000000 -0.1201440000000 1.0  -0.04
Li     1 -0.0672220000000  0.1673570000000 -0.3798560000000 1.0  -0.04
Li     1  0.0672220000000 -0.3326430000000  0.1201440000000 1.0  -0.04
Li     1  0.0672220000000 -0.1673570000000  0.3798560000000 1.0  -0.04
O      2 -0.0850020000000  0.2500000000000 -0.2500000000000 1.0   0.01
O      2  0.0850020000000 -0.2500000000000  0.2500000000000 1.0   0.01
S      3  0.0830160000000  0.3394940000000  0.4144920000000 1.0   0.10
S      3  0.0830160000000  0.1605060000000  0.0855080000000 1.0   0.10
S      3 -0.0830160000000 -0.3394940000000 -0.4144920000000 1.0   0.10
S      3 -0.0830160000000 -0.1605060000000 -0.0855080000000 1.0   0.10
S      3  0.4176180000000  0.2500000000000 -0.2500000000000 1.0   0.12
S      3 -0.4176180000000 -0.2500000000000  0.2500000000000 1.0   0.12
Fe     4  0.0857620000000  0.2500000000000  0.2500000000000 1.0   3.68
Fe     4 -0.0857620000000 -0.2500000000000 -0.2500000000000 1.0   3.68
END
