TITL LFSO-Li4Fe3S4O-201021-195854-9e64c0 0.4941 713.218002 -1.00778255E+004 24.0000 24.9996 24 (C2) n - 1
REM
REM Run started: Sat, 24 Oct 2020 00:57:06 +0100 in /lustre/scratch/uccabz1/launch_tmp/launcher_2020-10-23-09-35-25-584827
REM CASTEP 20.1 from code version af48c487+ pr-geom-scf-spinfix Tue Jun 2 15:39:59 2020 +0100
REM Functional Perdew Burke Ernzerhof Relativity Koelling-Harmon Dispersion off
REM Cut-off 340.0000 eV Grid scale 1.7500 Gmax 16.5316 1/A FBSC none
REM MP grid 3 2 2 Offset 0.000 0.000 0.000 No. kpts 5 Spacing 0.07
REM Total runtime: 63133.3 s
REM Overall efficiency: 71.0833 %
REM
REM
REM
REM compiler GCC version 4.9.2
REM options -cpp -iprefix /scratch/UCL/applications/gcc/4.9.2/bin/../lib/gcc/x86_64-unknown-linux-gnu/4.9.2/ -mtune=corei7 -march=x86-64 -g -O2
REM COMMAND_LINE
REM seed 2027488862 -1904389727 1205332793 -1341922993 832153434 805855076 -586826836 -1109219560 86658050 494755282 -853629415 1680452631
REM
REM S 3|1.8|5|6|7|30:31:32(qc=5)
REM O 2|1.5|12|13|15|20:21(qc=5)
REM Li 1|1.3|8|9|10|10U:20(qc=5)
REM Fe 3|2.2|2.0|1.0|8|9|10|40:41:32(qc=5)
REM Fe d:4.0 
REM
CELL 1.54180   11.43696   14.50841   14.50841   44.51176   32.98625   32.98625
LATT -1
SFAC Li O  S  Fe 
Li     1 -0.5875910000000 -0.4265400000000 -0.2649990000000 1.0   0.00
Li     1  0.5875910000000  0.2649990000000  0.4265400000000 1.0   0.00
Li     1  0.1214110000000  0.3140100000000 -0.4977420000000 1.0   0.03
Li     1 -0.1214110000000  0.4977420000000 -0.3140100000000 1.0   0.03
Li     1  0.0221100000000 -0.0458060000000  0.4547490000000 1.0  -0.05
Li     1 -0.0221100000000 -0.4547490000000  0.0458060000000 1.0  -0.05
Li     1 -0.2044860000000 -0.5294320000000  0.4156320000000 1.0  -0.01
Li     1  0.2044860000000 -0.4156320000000  0.5294320000000 1.0  -0.01
O      2  0.1913730000000  0.4117690000000 -0.4003200000000 1.0   0.13
O      2 -0.1913730000000  0.4003200000000 -0.4117690000000 1.0   0.13
S      3 -0.1436270000000 -0.1907530000000 -0.0227850000000 1.0   0.09
S      3  0.1436270000000  0.0227850000000  0.1907530000000 1.0   0.09
S      3 -0.3404130000000  0.4749770000000  0.2764810000000 1.0   0.12
S      3  0.3404130000000 -0.2764810000000 -0.4749770000000 1.0   0.12
S      3 -0.3720260000000  0.1133340000000 -0.3300930000000 1.0   0.12
S      3  0.3720260000000  0.3300930000000 -0.1133340000000 1.0   0.12
S      3  0.1973230000000  0.1597120000000  0.3331320000000 1.0   0.09
S      3 -0.1973230000000 -0.3331320000000 -0.1597120000000 1.0   0.09
Fe     4 -0.4558060000000 -0.2842400000000  0.1094640000000 1.0   3.83
Fe     4  0.4558060000000 -0.1094640000000  0.2842400000000 1.0   3.83
Fe     4 -0.1880480000000  0.2316030000000 -0.3684590000000 1.0   3.81
Fe     4  0.1880480000000  0.3684590000000 -0.2316030000000 1.0   3.81
Fe     4  0.1609570000000  0.2065950000000  0.1431510000000 1.0   3.84
Fe     4 -0.1609570000000 -0.1431510000000 -0.2065950000000 1.0   3.84
END
