TITL LFSO-Li6FeSO3-201027-213058-3f1807 0.0128 270.322067 -3.67558815E+003 3.99896 4.22241 11 (Fmm2) n - 1
REM
REM Run started: Tue, 27 Oct 2020 22:35:05 +0000 in /scratch/scratch/uccabz1/launch_tmp/launcher_2020-10-27-21-30-56-474865
REM CASTEP 19.11| from code version Version unavailable
REM Functional Perdew Burke Ernzerhof Relativity Koelling-Harmon Dispersion off
REM Cut-off 340.0000 eV Grid scale 1.7500 Gmax 16.5316 1/A FBSC none
REM MP grid 3 3 3 Offset 0.000 0.000 0.000 No. kpts 8 Spacing 0.07
REM Total runtime: 4580.5 s
REM Overall efficiency: 75.4286 %
REM
REM
REM
REM compiler GCC version 4.9.2
REM options -cpp -iprefix /scratch/UCL/applications/gcc/4.9.2/bin/../lib/gcc/x86_64-unknown-linux-gnu/4.9.2/ -mtune=corei7 -march=x86-64 -g -O2
REM COMMAND_LINE
REM seed -215687583 -1403212461 191916896 -1151603324 -956897512 39078503 1367627812 754167224 -361354863 -529079763 -1259896225 1967733177
REM
REM S 3|1.8|5|6|7|30:31:32(qc=5)
REM O 2|1.5|12|13|15|20:21(qc=5)
REM Li 1|1.3|8|9|10|10U:20(qc=5)
REM Fe 3|2.2|2.0|1.0|8|9|10|40:41:32(qc=5)
REM Fe d:4.0 
REM
CELL 1.54180    7.55690    7.55690    9.60466  131.92635  131.92635   45.69556
LATT -1
SFAC Li O  S  Fe 
Li     1 -0.3628880000000  0.0797550000000  0.3437910000000 1.0  -0.04
Li     1 -0.2640350000000  0.2933210000000 -0.3437910000000 1.0  -0.04
Li     1  0.0797550000000 -0.3628880000000  0.3437910000000 1.0  -0.04
Li     1  0.2933210000000 -0.2640350000000 -0.3437910000000 1.0  -0.04
Li     1 -0.4391470000000  0.1071390000000  0.0000000000000 1.0  -0.01
Li     1  0.1071390000000 -0.4391470000000  0.0000000000000 1.0  -0.01
O      2  0.4170250000000  0.4170250000000  0.4581780000000 1.0   0.20
O      2 -0.0411530000000 -0.0411530000000 -0.4581780000000 1.0   0.20
O      2  0.4146700000000  0.4146700000000  0.0000000000000 1.0   0.08
S      3 -0.2912070000000 -0.2912070000000  0.0000000000000 1.0  -0.02
Fe     4 -0.4562610000000 -0.4562610000000  0.0000000000000 1.0   3.68
END
