TITL LFSO-Li4Fe3S3O2-201029-225957-15e9d6 -0.0104 235.015849 -5.16638913E+003 -8.36184 10.2158 12 (P-4) n - 1
REM
REM Run started: Fri, 30 Oct 2020 00:22:09 +0000 in /lustre/scratch/uccabz1/launch_tmp/launcher_2020-10-29-22-59-55-751855
REM CASTEP 20.1 from code version af48c487+ pr-geom-scf-spinfix Tue Jun 2 15:39:59 2020 +0100
REM Functional Perdew Burke Ernzerhof Relativity Koelling-Harmon Dispersion off
REM Cut-off 340.0000 eV Grid scale 1.7500 Gmax 16.5316 1/A FBSC none
REM MP grid 4 4 2 Offset 0.000 0.000 0.000 No. kpts 4 Spacing 0.07
REM Total runtime: 5056.85 s
REM Overall efficiency: 73.8 %
REM
REM
REM
REM compiler GCC version 4.9.2
REM options -cpp -iprefix /lustre/shared/ucl/apps/gcc/4.9.2/bin/../lib/gcc/x86_64-unknown-linux-gnu/4.9.2/ -mtune=corei7 -march=x86-64 -g -Og
REM COMMAND_LINE
REM seed 1093744729 -349680160 1027279022 102071519 351257511 435575000 -828646740 1240272821 1851946560 -162955298 -996107450 -1225857071
REM
REM S 3|1.8|5|6|7|30:31:32(qc=5)
REM O 2|1.5|12|13|15|20:21(qc=5)
REM Li 1|1.3|8|9|10|10U:20(qc=5)
REM Fe 3|2.2|2.0|1.0|8|9|10|40:41:32(qc=5)
REM Fe d:4.0 
REM
CELL 1.54180    4.48887    4.48887   11.66333   90.00000   90.00000   90.00000
LATT -1
SFAC Li O  S  Fe 
Li     1 -0.2337100000000  0.1858110000000  0.3367230000000 1.0   0.08
Li     1  0.2337100000000 -0.1858110000000  0.3367230000000 1.0   0.08
Li     1 -0.1858110000000 -0.2337100000000 -0.3367230000000 1.0   0.08
Li     1  0.1858110000000  0.2337100000000 -0.3367230000000 1.0   0.08
O      2  0.5000000000000  0.0000000000000 -0.5017100000000 1.0   0.13
O      2 -0.0000000000000 -0.5000000000000  0.5017100000000 1.0   0.13
S      3  0.5000000000000  0.0000000000000  0.1801160000000 1.0   0.05
S      3 -0.0000000000000 -0.5000000000000 -0.1801160000000 1.0   0.05
S      3 -0.0000000000000  0.0000000000000  0.5000000000000 1.0   0.40
Fe     4 -0.5000000000000  0.5000000000000 -0.1385620000000 1.0  -3.17
Fe     4  0.5000000000000 -0.5000000000000  0.1385620000000 1.0  -3.17
Fe     4  0.5000000000000 -0.5000000000000 -0.5000000000000 1.0  -3.09
END
