TITL LFSO-Li5FeS2O2-201025-203735-4246d2 0.1878 448.011415 -6.68958070E+003 6.00078 6.90966 20 (Pc) n - 1
REM
REM Run started: Mon, 26 Oct 2020 04:00:56 +0000 in /lustre/scratch/uccabz1/launch_tmp/launcher_2020-10-25-20-37-33-876271
REM CASTEP 20.1 from code version af48c487+ pr-geom-scf-spinfix Tue Jun 2 15:39:59 2020 +0100
REM Functional Perdew Burke Ernzerhof Relativity Koelling-Harmon Dispersion off
REM Cut-off 340.0000 eV Grid scale 1.7500 Gmax 16.5316 1/A FBSC none
REM MP grid 5 4 1 Offset 0.000 0.000 0.000 No. kpts 6 Spacing 0.07
REM Total runtime: 32242.2 s
REM Overall efficiency: 91.75 %
REM
REM
REM
REM compiler GCC version 4.9.2
REM options -cpp -iprefix /lustre/shared/ucl/apps/gcc/4.9.2/bin/../lib/gcc/x86_64-unknown-linux-gnu/4.9.2/ -mtune=corei7 -march=x86-64 -g -Og
REM COMMAND_LINE
REM seed -412038687 -1356170118 -540967227 998330165 1553666400 481570719 524270407 -866353276 1135306867 662734630 -88584649 -223897972
REM
REM S 3|1.8|5|6|7|30:31:32(qc=5)
REM O 2|1.5|12|13|15|20:21(qc=5)
REM Li 1|1.3|8|9|10|10U:20(qc=5)
REM Fe 3|2.2|2.0|1.0|8|9|10|40:41:32(qc=5)
REM Fe d:4.0 
REM
CELL 1.54180    3.26913    8.20735   29.05547  144.92276   90.00000   90.00000
LATT -1
SFAC Li O  S  Fe 
Li     1  0.1374100000000 -0.4119850000000 -0.3274670000000 1.0   0.00
Li     1 -0.1374100000000  0.0880150000000  0.1725330000000 1.0   0.00
Li     1  0.3649910000000 -0.2506190000000 -0.3700340000000 1.0  -0.02
Li     1 -0.3649910000000  0.2493810000000  0.1299660000000 1.0  -0.02
Li     1 -0.3612450000000  0.2766940000000 -0.4662960000000 1.0   0.01
Li     1  0.3612450000000 -0.2233060000000  0.0337040000000 1.0   0.01
Li     1  0.3623580000000 -0.1848720000000 -0.1660820000000 1.0  -0.03
Li     1 -0.3623580000000  0.3151280000000  0.3339180000000 1.0  -0.03
Li     1  0.3060110000000  0.4402550000000  0.2894020000000 1.0  -0.00
Li     1 -0.3060110000000 -0.0597450000000 -0.2105980000000 1.0  -0.00
O      2 -0.1274760000000 -0.3906610000000 -0.3813320000000 1.0  -0.00
O      2  0.1274760000000  0.1093390000000  0.1186680000000 1.0  -0.00
O      2 -0.1895730000000  0.3296760000000  0.2792600000000 1.0   0.01
O      2  0.1895730000000 -0.1703240000000 -0.2207400000000 1.0   0.01
S      3  0.4226190000000  0.3598180000000  0.4262930000000 1.0  -0.07
S      3 -0.4226190000000 -0.1401820000000 -0.0737070000000 1.0  -0.07
S      3  0.4225140000000  0.0171470000000 -0.4504810000000 1.0  -0.05
S      3 -0.4225140000000 -0.4828530000000  0.0495190000000 1.0  -0.05
Fe     4 -0.0773070000000 -0.2992460000000  0.4938970000000 1.0   3.15
Fe     4  0.0773070000000  0.2007540000000 -0.0061030000000 1.0   3.15
END
