TITL LFSO-Li3FeS2O-201025-051231-bd866f -0.0034 344.272443 -5.00791913E+003 9.08601 9.19129 14 (I-4) n - 1
REM
REM Run started: Sun, 25 Oct 2020 15:20:11 +0000 in /lustre/scratch/uccabz1/launch_tmp/launcher_2020-10-25-05-12-30-122286
REM CASTEP 20.1 from code version af48c487+ pr-geom-scf-spinfix Tue Jun 2 15:39:59 2020 +0100
REM Functional Perdew Burke Ernzerhof Relativity Koelling-Harmon Dispersion off
REM Cut-off 340.0000 eV Grid scale 1.7500 Gmax 16.5316 1/A FBSC none
REM MP grid 3 3 2 Offset 0.000 0.000 0.000 No. kpts 6 Spacing 0.07
REM Total runtime: 40620.4 s
REM Overall efficiency: 94.7692 %
REM
REM
REM
REM compiler GCC version 4.9.2
REM options -cpp -iprefix /lustre/shared/ucl/apps/gcc/4.9.2/bin/../lib/gcc/x86_64-unknown-linux-gnu/4.9.2/ -mtune=corei7 -march=x86-64 -g -Og
REM COMMAND_LINE
REM seed 1286470755 1453811637 -1960051082 362469294 -781626520 -132845685 1071199568 1106621866 -120661651 -1687629007 302216372 2137006362
REM
REM S 3|1.8|5|6|7|30:31:32(qc=5)
REM O 2|1.5|12|13|15|20:21(qc=5)
REM Li 1|1.3|8|9|10|10U:20(qc=5)
REM Fe 3|2.2|2.0|1.0|8|9|10|40:41:32(qc=5)
REM Fe d:4.0 
REM
CELL 1.54180    6.15236    6.15236   10.08220  107.76481  107.76481   90.00000
LATT -1
SFAC Li O  S  Fe 
Li     1 -0.2195290000000 -0.3307870000000  0.1666580000000 1.0  -0.02
Li     1  0.3861870000000  0.4974460000000  0.1666580000000 1.0  -0.02
Li     1 -0.4974460000000  0.2195290000000 -0.1666580000000 1.0  -0.02
Li     1  0.3307870000000 -0.3861870000000 -0.1666580000000 1.0  -0.02
Li     1  0.0693370000000  0.0693370000000  0.1386740000000 1.0   0.11
Li     1 -0.0693370000000 -0.0693370000000 -0.1386740000000 1.0   0.11
O      2  0.3493180000000  0.3493180000000 -0.3013630000000 1.0   0.19
O      2 -0.3493180000000 -0.3493180000000  0.3013630000000 1.0   0.19
S      3  0.3521470000000  0.0931170000000 -0.0015640000000 1.0   0.00
S      3 -0.3537110000000 -0.0946810000000 -0.0015640000000 1.0   0.00
S      3  0.0946810000000 -0.3521470000000  0.0015640000000 1.0   0.00
S      3 -0.0931170000000  0.3537110000000  0.0015640000000 1.0   0.00
Fe     4  0.2511090000000  0.2511090000000  0.5022170000000 1.0   4.28
Fe     4 -0.2511090000000 -0.2511090000000 -0.5022170000000 1.0   4.28
END
