TITL LFSO-Li2Fe2S2O-201022-043311-587358 -0.0653 262.390523 -6.33510645E+003 14.9195 15.3750 14 (F222) n - 1
REM
REM Run started: Thu, 22 Oct 2020 07:22:34 +0100 in /lustre/scratch/uccabz1/launch_tmp/launcher_2020-10-22-03-33-09-787097
REM CASTEP 20.1 from code version af48c487+ pr-geom-scf-spinfix Tue Jun 2 15:39:59 2020 +0100
REM Functional Perdew Burke Ernzerhof Relativity Koelling-Harmon Dispersion off
REM Cut-off 340.0000 eV Grid scale 1.7500 Gmax 16.5316 1/A FBSC none
REM MP grid 4 4 2 Offset 0.000 0.000 0.000 No. kpts 10 Spacing 0.07
REM Total runtime: 11197.3 s
REM Overall efficiency: 84.875 %
REM
REM
REM
REM compiler GCC version 4.9.2
REM options -cpp -iprefix /lustre/shared/ucl/apps/gcc/4.9.2/bin/../lib/gcc/x86_64-unknown-linux-gnu/4.9.2/ -mtune=corei7 -march=x86-64 -g -Og
REM COMMAND_LINE
REM seed -1712526688 -147575092 96292030 -1033381377 2136922379 511564873 2055090968 -746911827 -491565316 1917353701 -951214898 -465377955
REM
REM S 3|1.8|5|6|7|30:31:32(qc=5)
REM O 2|1.5|12|13|15|20:21(qc=5)
REM Li 1|1.3|8|9|10|10U:20(qc=5)
REM Fe 3|2.2|2.0|1.0|8|9|10|40:41:32(qc=5)
REM Fe d:4.0 
REM
CELL 1.54180    4.80489    4.80489   11.86584  100.55413  100.55413   95.47092
LATT -1
SFAC Li O  S  Fe 
Li     1  0.2039970000000 -0.2980770000000 -0.0962110000000 1.0  -0.07
Li     1 -0.2018660000000  0.3002070000000  0.0962110000000 1.0  -0.07
Li     1 -0.3002070000000  0.2018660000000 -0.0962110000000 1.0  -0.07
Li     1  0.2980770000000 -0.2039960000000  0.0962110000000 1.0  -0.07
O      2  0.5004080000000  0.0004080000000  0.0008160000000 1.0   0.45
O      2 -0.0004080000000 -0.5004080000000 -0.0008160000000 1.0   0.45
S      3 -0.4401360000000  0.0945130000000 -0.3266110000000 1.0   0.08
S      3 -0.5788760000000 -0.1135250000000  0.3266110000000 1.0   0.08
S      3  0.1135250000000  0.5788770000000 -0.3266110000000 1.0   0.08
S      3 -0.0945120000000  0.4401360000000  0.3266110000000 1.0   0.08
Fe     4  0.4248130000000  0.3885820000000  0.3515690000000 1.0   3.49
Fe     4  0.0370130000000  0.0732440000000 -0.3515690000000 1.0   3.49
Fe     4 -0.0732440000000 -0.0370130000000  0.3515690000000 1.0   3.49
Fe     4 -0.3885820000000 -0.4248130000000 -0.3515690000000 1.0   3.49
END
