TITL LFSO-Li6FeS3O-201027-115151-740a1d -0.0371 205.754007 -3.41010262E+003 3.96791 4.12430 11 (P2/m) n - 1
REM
REM Run started: Tue, 27 Oct 2020 13:31:23 +0000 in /lustre/scratch/uccabz1/launch_tmp/launcher_2020-10-27-11-51-49-745044
REM CASTEP 20.1 from code version af48c487+ pr-geom-scf-spinfix Tue Jun 2 15:39:59 2020 +0100
REM Functional Perdew Burke Ernzerhof Relativity Koelling-Harmon Dispersion off
REM Cut-off 340.0000 eV Grid scale 1.7500 Gmax 16.5316 1/A FBSC none
REM MP grid 4 3 3 Offset 0.000 0.000 0.000 No. kpts 10 Spacing 0.07
REM Total runtime: 6853.36 s
REM Overall efficiency: 78.3846 %
REM
REM
REM
REM compiler GCC version 4.9.2
REM options -cpp -iprefix /lustre/shared/ucl/apps/gcc/4.9.2/bin/../lib/gcc/x86_64-unknown-linux-gnu/4.9.2/ -mtune=corei7 -march=x86-64 -g -Og
REM COMMAND_LINE
REM seed -18527017 -220046892 -1961728414 244414808 1213269185 -190512784 -1224460878 206384322 412552297 235429261 -1336030099 -485579596
REM
REM S 3|1.8|5|6|7|30:31:32(qc=5)
REM O 2|1.5|12|13|15|20:21(qc=5)
REM Li 1|1.3|8|9|10|10U:20(qc=5)
REM Fe 3|2.2|2.0|1.0|8|9|10|40:41:32(qc=5)
REM Fe d:4.0 
REM
CELL 1.54180    3.73130    8.70845   11.08104   34.85038   90.00000   90.00000
LATT -1
SFAC Li O  S  Fe 
Li     1  0.4142960000000  0.1665170000000 -0.3168810000000 1.0  -0.01
Li     1  0.4142960000000 -0.1665170000000  0.3168810000000 1.0  -0.01
Li     1 -0.0848240000000 -0.1959010000000 -0.3107680000000 1.0  -0.04
Li     1 -0.0848240000000  0.1959010000000  0.3107680000000 1.0  -0.04
Li     1 -0.0849640000000  0.2989210000000 -0.1820240000000 1.0  -0.01
Li     1 -0.0849640000000 -0.2989210000000  0.1820240000000 1.0  -0.01
O      2 -0.0846970000000 -0.5000000000000  0.0000000000000 1.0   0.10
S      3 -0.0870160000000  0.2232880000000  0.5086960000000 1.0   0.16
S      3 -0.0870160000000 -0.2232880000000 -0.5086960000000 1.0   0.16
S      3  0.4122560000000  0.0000000000000  0.0000000000000 1.0   0.05
Fe     4 -0.5843500000000  0.5000000000000  0.0000000000000 1.0   3.64
END
