TITL LFSO-Li5FeSO3-201027-021430-626ecd -0.0081 153.772191 -3.47324308E+003 4.98960 5.08363 10 (P-4) n - 1
REM
REM Run started: Tue, 27 Oct 2020 02:38:13 +0000 in /lustre/scratch/uccabz1/launch_tmp/launcher_2020-10-27-02-14-28-192073
REM CASTEP 20.1 from code version af48c487+ pr-geom-scf-spinfix Tue Jun 2 15:39:59 2020 +0100
REM Functional Perdew Burke Ernzerhof Relativity Koelling-Harmon Dispersion off
REM Cut-off 340.0000 eV Grid scale 1.7500 Gmax 16.5316 1/A FBSC none
REM MP grid 4 3 3 Offset 0.000 0.000 0.000 No. kpts 6 Spacing 0.07
REM Total runtime: 1702.99 s
REM Overall efficiency: 89.8 %
REM
REM
REM
REM compiler GCC version 4.9.2
REM options -cpp -iprefix /lustre/shared/ucl/apps/gcc/4.9.2/bin/../lib/gcc/x86_64-unknown-linux-gnu/4.9.2/ -mtune=corei7 -march=x86-64 -g -Og
REM COMMAND_LINE
REM seed -947895269 458545518 -1442510412 -1445872533 696247747 -326531031 -1021807601 77955114 -2012655846 872650811 -1516971326 39433801
REM
REM S 3|1.8|5|6|7|30:31:32(qc=5)
REM O 2|1.5|12|13|15|20:21(qc=5)
REM Li 1|1.3|8|9|10|10U:20(qc=5)
REM Fe 3|2.2|2.0|1.0|8|9|10|40:41:32(qc=5)
REM Fe d:4.0 
REM
CELL 1.54180    4.23375    6.02665    6.02665   90.00000   90.00000   90.00000
LATT -1
SFAC Li O  S  Fe 
Li     1 -0.0499300000000  0.2558940000000 -0.3366830000000 1.0  -0.06
Li     1 -0.0499300000000 -0.2558940000000  0.3366830000000 1.0  -0.06
Li     1  0.0499300000000 -0.3366830000000 -0.2558940000000 1.0  -0.06
Li     1  0.0499300000000  0.3366830000000  0.2558940000000 1.0  -0.06
Li     1  0.5000000000000  0.5000000000000 -0.5000000000000 1.0   0.02
O      2  0.0058810000000 -0.5000000000000  0.0000000000000 1.0   0.60
O      2 -0.0058810000000  0.0000000000000 -0.5000000000000 1.0   0.60
O      2  0.0000000000000  0.5000000000000 -0.5000000000000 1.0   0.02
S      3  0.5000000000000  0.0000000000000  0.0000000000000 1.0   0.48
Fe     4  0.0000000000000  0.0000000000000  0.0000000000000 1.0   3.51
END
