TITL LFSO-Li5FeSO3-201026-223655-a7b642 -0.0061 167.584436 -3.47693342E+003 3.00000 3.53139 10 (R3) n - 1
REM
REM Run started: Mon, 26 Oct 2020 22:52:50 +0000 in /lustre/scratch/uccabz1/launch_tmp/launcher_2020-10-26-22-36-52-919203
REM CASTEP 20.1 from code version af48c487+ pr-geom-scf-spinfix Tue Jun 2 15:39:59 2020 +0100
REM Functional Perdew Burke Ernzerhof Relativity Koelling-Harmon Dispersion off
REM Cut-off 340.0000 eV Grid scale 1.7500 Gmax 16.5316 1/A FBSC none
REM MP grid 3 3 3 Offset 0.000 0.000 0.000 No. kpts 6 Spacing 0.07
REM Total runtime: 1258.44 s
REM Overall efficiency: 88.6667 %
REM
REM
REM
REM compiler GCC version 4.9.2
REM options -cpp -iprefix /lustre/shared/ucl/apps/gcc/4.9.2/bin/../lib/gcc/x86_64-unknown-linux-gnu/4.9.2/ -mtune=corei7 -march=x86-64 -g -Og
REM COMMAND_LINE
REM seed -1313955046 135498997 79893555 1469115466 -935300590 2107007234 55440375 -1128480495 -615276115 292680656 -573920997 957791593
REM
REM S 3|1.8|5|6|7|30:31:32(qc=5)
REM O 2|1.5|12|13|15|20:21(qc=5)
REM Li 1|1.3|8|9|10|10U:20(qc=5)
REM Fe 3|2.2|2.0|1.0|8|9|10|40:41:32(qc=5)
REM Fe d:4.0 
REM
CELL 1.54180    5.52635    5.52635    5.52635   85.97536   85.97536   85.97536
LATT -1
SFAC Li O  S  Fe 
Li     1 -0.0169440000000 -0.3813730000000  0.2189450000000 1.0   0.01
Li     1 -0.3813730000000  0.2189450000000 -0.0169440000000 1.0   0.01
Li     1  0.2189450000000 -0.0169440000000 -0.3813730000000 1.0   0.01
Li     1 -0.3144290000000 -0.3144290000000 -0.3144290000000 1.0  -0.07
Li     1  0.1154870000000  0.1154870000000  0.1154870000000 1.0   0.02
O      2  0.3922740000000  0.2590390000000 -0.2746390000000 1.0  -0.01
O      2  0.2590390000000 -0.2746390000000  0.3922740000000 1.0  -0.01
O      2 -0.2746390000000  0.3922740000000  0.2590390000000 1.0  -0.01
S      3 -0.1011100000000 -0.1011100000000 -0.1011100000000 1.0  -0.09
Fe     4  0.4501970000000  0.4501970000000  0.4501970000000 1.0   3.14
END
