TITL LFSO-Li2FeSO-201025-052043-5b02e7 -0.0011 63.665466 -2.00316504E+003 3.98965 4.07572 5 (R3m) n - 1
REM
REM Run started: Sun, 25 Oct 2020 05:38:07 +0000 in /lustre/scratch/uccabz1/launch_tmp/launcher_2020-10-25-05-20-42-074373
REM CASTEP 20.1 from code version af48c487+ pr-geom-scf-spinfix Tue Jun 2 15:39:59 2020 +0100
REM Functional Perdew Burke Ernzerhof Relativity Koelling-Harmon Dispersion off
REM Cut-off 340.0000 eV Grid scale 1.7500 Gmax 16.5316 1/A FBSC none
REM MP grid 5 5 5 Offset 0.000 0.000 0.000 No. kpts 19 Spacing 0.07
REM Total runtime: 1695.48 s
REM Overall efficiency: 83 %
REM
REM
REM
REM compiler GCC version 4.9.2
REM options -cpp -iprefix /lustre/shared/ucl/apps/gcc/4.9.2/bin/../lib/gcc/x86_64-unknown-linux-gnu/4.9.2/ -mtune=corei7 -march=x86-64 -g -Og
REM COMMAND_LINE
REM seed 404385635 213041766 587751313 2020863406 -1631769688 -76484350 1637794 1627360157 -348205292 513247624 -931707782 -2092608767
REM
REM S 3|1.8|5|6|7|30:31:32(qc=5)
REM O 2|1.5|12|13|15|20:21(qc=5)
REM Li 1|1.3|8|9|10|10U:20(qc=5)
REM Fe 3|2.2|2.0|1.0|8|9|10|40:41:32(qc=5)
REM Fe d:4.0 
REM
CELL 1.54180    6.49413    6.49413    6.49413   30.79544   30.79544   30.79544
LATT -1
SFAC Li O  S  Fe 
Li     1  0.4186130000000  0.4186130000000  0.4186130000000 1.0  -0.09
Li     1  0.0093820000000  0.0093820000000  0.0093820000000 1.0   0.02
O      2 -0.2559280000000 -0.2559280000000 -0.2559280000000 1.0   0.08
S      3  0.2538690000000  0.2538690000000  0.2538690000000 1.0   0.36
Fe     4 -0.1484380000000 -0.1484380000000 -0.1484380000000 1.0   3.62
END
