TITL LFSO-Li2Fe3S3O-201026-035147-9d1976 0.0611 391.506698 -8.66869236E+003 6.00081 22.8473 18 (C2/m) n - 1
REM
REM Run started: Mon, 26 Oct 2020 09:00:12 +0000 in /lustre/scratch/uccabz1/launch_tmp/launcher_2020-10-26-03-51-45-796385
REM CASTEP 20.1 from code version af48c487+ pr-geom-scf-spinfix Tue Jun 2 15:39:59 2020 +0100
REM Functional Perdew Burke Ernzerhof Relativity Koelling-Harmon Dispersion off
REM Cut-off 340.0000 eV Grid scale 1.7500 Gmax 16.5316 1/A FBSC none
REM MP grid 3 2 2 Offset 0.000 0.000 0.000 No. kpts 5 Spacing 0.07
REM Total runtime: 18626.7 s
REM Overall efficiency: 76.7778 %
REM
REM
REM
REM compiler GCC version 4.9.2
REM options -cpp -iprefix /lustre/shared/ucl/apps/gcc/4.9.2/bin/../lib/gcc/x86_64-unknown-linux-gnu/4.9.2/ -mtune=corei7 -march=x86-64 -g -Og
REM COMMAND_LINE
REM seed -1929766772 -129682508 -1099718510 -1807080395 1271570869 1386240864 1979598883 443712246 2065908059 1822410001 459372004 745722595
REM
REM S 3|1.8|5|6|7|30:31:32(qc=5)
REM O 2|1.5|12|13|15|20:21(qc=5)
REM Li 1|1.3|8|9|10|10U:20(qc=5)
REM Fe 3|2.2|2.0|1.0|8|9|10|40:41:32(qc=5)
REM Fe d:4.0 
REM
CELL 1.54180    5.28864    9.14821    9.14821  117.79606   90.34820   90.34820
LATT -1
SFAC Li O  S  Fe 
Li     1 -0.5203790000000  0.2829380000000  0.4617860000000 1.0   0.02
Li     1  0.5203790000000 -0.4617860000000 -0.2829380000000 1.0   0.02
Li     1  0.5203790000000 -0.2829380000000 -0.4617860000000 1.0   0.02
Li     1 -0.5203790000000  0.4617860000000  0.2829380000000 1.0   0.02
O      2 -0.2667840000000 -0.4818000000000 -0.4818000000000 1.0  -0.36
O      2  0.2667840000000  0.4818000000000  0.4818000000000 1.0  -0.36
S      3  0.0108880000000  0.1081080000000  0.3615300000000 1.0   0.01
S      3 -0.0108880000000 -0.3615300000000 -0.1081080000000 1.0   0.01
S      3 -0.0108880000000 -0.1081080000000 -0.3615300000000 1.0   0.01
S      3  0.0108880000000  0.3615300000000  0.1081080000000 1.0   0.01
S      3 -0.5000000000000 -0.2795020000000  0.2795020000000 1.0   0.09
S      3  0.5000000000000  0.2795020000000 -0.2795020000000 1.0   0.09
Fe     4  0.1363690000000 -0.3808050000000  0.1242960000000 1.0   3.47
Fe     4 -0.1363690000000 -0.1242960000000  0.3808050000000 1.0   3.47
Fe     4 -0.1363690000000  0.3808050000000 -0.1242960000000 1.0   3.47
Fe     4  0.1363690000000  0.1242960000000 -0.3808050000000 1.0   3.47
Fe     4  0.0449490000000 -0.3569140000000 -0.3569140000000 1.0  -3.73
Fe     4 -0.0449490000000  0.3569140000000  0.3569140000000 1.0  -3.73
END
