TITL LFSO-Li2Fe4S3O2-201026-032644-74fbf9 -0.3448 627.889687 -1.12687652E+004 32.0000 32.7397 22 (Fmm2) n - 1
REM
REM Run started: Mon, 26 Oct 2020 14:25:46 +0000 in /lustre/scratch/uccabz1/launch_tmp/launcher_2020-10-26-03-26-42-233431
REM CASTEP 20.1 from code version af48c487+ pr-geom-scf-spinfix Tue Jun 2 15:39:59 2020 +0100
REM Functional Perdew Burke Ernzerhof Relativity Koelling-Harmon Dispersion off
REM Cut-off 340.0000 eV Grid scale 1.7500 Gmax 16.5316 1/A FBSC none
REM MP grid 2 2 3 Offset 0.000 0.000 0.000 No. kpts 5 Spacing 0.07
REM Total runtime: 47381.4 s
REM Overall efficiency: 72.9167 %
REM
REM
REM
REM compiler GCC version 4.9.2
REM options -cpp -iprefix /lustre/shared/ucl/apps/gcc/4.9.2/bin/../lib/gcc/x86_64-unknown-linux-gnu/4.9.2/ -mtune=corei7 -march=x86-64 -g -Og
REM COMMAND_LINE
REM seed 1953532352 -1120291144 970333776 288691687 -1904796200 -284294270 -155146816 566303126 517168334 -615218749 1111761300 872399297
REM
REM S 3|1.8|5|6|7|30:31:32(qc=5)
REM O 2|1.5|12|13|15|20:21(qc=5)
REM Li 1|1.3|8|9|10|10U:20(qc=5)
REM Fe 3|2.2|2.0|1.0|8|9|10|40:41:32(qc=5)
REM Fe d:4.0 
REM
CELL 1.54180   11.51901   11.51901   11.10314  138.31728  138.31728   63.91194
LATT -1
SFAC Li O  S  Fe 
Li     1 -0.5009230000000  0.1967240000000  0.0214810000000 1.0  -0.04
Li     1 -0.4775960000000 -0.1752440000000  0.0214810000000 1.0  -0.04
Li     1 -0.1752440000000 -0.4775960000000  0.0214810000000 1.0  -0.04
Li     1  0.1967240000000 -0.5009230000000  0.0214810000000 1.0  -0.04
O      2 -0.0199500000000 -0.6816100000000 -0.2992140000000 1.0   0.23
O      2 -0.2792640000000  0.3823960000000 -0.2992140000000 1.0   0.23
O      2  0.3823960000000 -0.2792640000000 -0.2992140000000 1.0   0.23
O      2 -0.6816100000000 -0.0199500000000 -0.2992140000000 1.0   0.23
S      3  0.0857690000000 -0.2504300000000  0.0722550000000 1.0   0.14
S      3 -0.0135140000000  0.3226860000000  0.0722550000000 1.0   0.14
S      3  0.3226860000000 -0.0135140000000  0.0722550000000 1.0   0.14
S      3 -0.2504300000000  0.0857690000000  0.0722550000000 1.0   0.14
S      3 -0.5195140000000 -0.5195140000000  0.3597340000000 1.0   0.14
S      3 -0.1207520000000 -0.1207520000000  0.3597340000000 1.0   0.14
Fe     4 -0.1329590000000  0.0989240000000  0.3583930000000 1.0   3.73
Fe     4  0.4913520000000  0.2594690000000  0.3583930000000 1.0   3.73
Fe     4  0.2594690000000  0.4913520000000  0.3583930000000 1.0   3.73
Fe     4  0.0989240000000 -0.1329590000000  0.3583930000000 1.0   3.73
Fe     4 -0.1639400000000  0.5142610000000 -0.2597100000000 1.0   3.86
Fe     4 -0.0957700000000  0.2260290000000 -0.2597100000000 1.0   3.86
Fe     4  0.2260290000000 -0.0957700000000 -0.2597100000000 1.0   3.86
Fe     4  0.5142610000000 -0.1639400000000 -0.2597100000000 1.0   3.86
END
