TITL LFSO-Li5FeSO3-201026-135145-ae829a -0.0305 276.485810 -6.95613088E+003 -6.00000 6.83013 20 (Cmm2) n - 1
REM
REM Run started: Mon, 26 Oct 2020 18:30:23 +0000 in /lustre/scratch/uccabz1/launch_tmp/launcher_2020-10-26-13-51-44-318997
REM CASTEP 20.1 from code version af48c487+ pr-geom-scf-spinfix Tue Jun 2 15:39:59 2020 +0100
REM Functional Perdew Burke Ernzerhof Relativity Koelling-Harmon Dispersion off
REM Cut-off 340.0000 eV Grid scale 1.7500 Gmax 16.5316 1/A FBSC none
REM MP grid 2 5 2 Offset 0.000 0.000 0.000 No. kpts 6 Spacing 0.07
REM Total runtime: 18293.2 s
REM Overall efficiency: 90.6154 %
REM
REM
REM
REM compiler GCC version 4.9.2
REM options -cpp -iprefix /lustre/shared/ucl/apps/gcc/4.9.2/bin/../lib/gcc/x86_64-unknown-linux-gnu/4.9.2/ -mtune=corei7 -march=x86-64 -g -Og
REM COMMAND_LINE
REM seed 76015904 -751643207 -100644491 -1575306086 1319836620 1228637854 420060172 1830471879 1402967154 1024191812 2022591644 1488659079
REM
REM S 3|1.8|5|6|7|30:31:32(qc=5)
REM O 2|1.5|12|13|15|20:21(qc=5)
REM Li 1|1.3|8|9|10|10U:20(qc=5)
REM Fe 3|2.2|2.0|1.0|8|9|10|40:41:32(qc=5)
REM Fe d:4.0 
REM
CELL 1.54180    9.83057    3.60244    9.22566   90.00000  122.19371   90.00000
LATT -1
SFAC Li O  S  Fe 
Li     1 -0.4478050000000 -0.2121850000000 -0.2403030000000 1.0   0.02
Li     1  0.4478050000000 -0.2121850000000  0.2403030000000 1.0   0.02
Li     1 -0.2075020000000 -0.2121850000000  0.2403030000000 1.0   0.02
Li     1  0.2075020000000 -0.2121850000000 -0.2403030000000 1.0   0.02
Li     1  0.0200170000000  0.3189630000000 -0.3741080000000 1.0   0.00
Li     1 -0.0200170000000  0.3189630000000  0.3741080000000 1.0   0.00
Li     1 -0.6058750000000  0.3189630000000  0.3741080000000 1.0   0.00
Li     1  0.6058750000000  0.3189630000000 -0.3741080000000 1.0   0.00
Li     1 -0.1972510000000 -0.2200300000000 -0.3945020000000 1.0  -0.02
Li     1  0.1972510000000 -0.2200300000000  0.3945020000000 1.0  -0.02
O      2  0.3922880000000  0.2898420000000  0.1757660000000 1.0  -0.06
O      2 -0.3922880000000  0.2898420000000 -0.1757660000000 1.0  -0.06
O      2  0.2165220000000  0.2898420000000 -0.1757660000000 1.0  -0.06
O      2 -0.2165220000000  0.2898420000000  0.1757660000000 1.0  -0.06
O      2 -0.0000000000000 -0.2075720000000 -0.5000000000000 1.0   0.01
O      2  0.5000000000000 -0.2075720000000  0.5000000000000 1.0   0.01
S      3 -0.0994900000000  0.2810250000000 -0.1989800000000 1.0   0.11
S      3  0.0994900000000  0.2810250000000  0.1989800000000 1.0   0.11
Fe     4 -0.1849720000000  0.2776350000000  0.0000000000000 1.0  -3.02
Fe     4  0.1849720000000  0.2776350000000  0.0000000000000 1.0  -3.02
END
