TITL LFSO-Li6FeSO3-201028-030104-37d669 -0.0001 195.848504 -3.67416679E+003 3.84697 3.94934 11 (P222) n - 1
REM
REM Run started: Wed, 28 Oct 2020 04:34:55 +0000 in /scratch/scratch/uccabz1/launch_tmp/launcher_2020-10-28-03-01-02-765269
REM CASTEP 19.11| from code version Version unavailable
REM Functional Perdew Burke Ernzerhof Relativity Koelling-Harmon Dispersion off
REM Cut-off 340.0000 eV Grid scale 1.7500 Gmax 16.5316 1/A FBSC none
REM MP grid 4 5 1 Offset 0.000 0.000 0.000 No. kpts 6 Spacing 0.07
REM Total runtime: 5505.35 s
REM Overall efficiency: 83.3333 %
REM
REM
REM
REM compiler GCC version 4.9.2
REM options -cpp -iprefix /scratch/UCL/applications/gcc/4.9.2/bin/../lib/gcc/x86_64-unknown-linux-gnu/4.9.2/ -mtune=corei7 -march=x86-64 -g -O2
REM COMMAND_LINE
REM seed -907195311 1766663218 1300534677 -1272218634 175014136 -2060069608 785624244 -1416142205 1668881183 1782857551 -439684772 -542588890
REM
REM S 3|1.8|5|6|7|30:31:32(qc=5)
REM O 2|1.5|12|13|15|20:21(qc=5)
REM Li 1|1.3|8|9|10|10U:20(qc=5)
REM Fe 3|2.2|2.0|1.0|8|9|10|40:41:32(qc=5)
REM Fe d:4.0 
REM
CELL 1.54180    3.74589    3.47670   15.03830   90.00000   90.00000   90.00000
LATT -1
SFAC Li O  S  Fe 
Li     1  0.2266950000000  0.2749900000000  0.1285250000000 1.0  -0.01
Li     1  0.2266950000000 -0.2749900000000 -0.1285250000000 1.0  -0.01
Li     1 -0.2266950000000  0.2749900000000 -0.1285250000000 1.0  -0.01
Li     1 -0.2266950000000 -0.2749900000000  0.1285250000000 1.0  -0.01
Li     1  0.0000000000000  0.0000000000000 -0.2747630000000 1.0  -0.03
Li     1  0.0000000000000  0.0000000000000  0.2747630000000 1.0  -0.03
O      2  0.0000000000000  0.5000000000000  0.2195900000000 1.0   0.00
O      2  0.0000000000000  0.5000000000000 -0.2195900000000 1.0   0.00
O      2 -0.5000000000000  0.0000000000000  0.5000000000000 1.0   0.08
S      3  0.0000000000000  0.5000000000000  0.0000000000000 1.0   0.06
Fe     4  0.0000000000000  0.0000000000000 -0.5000000000000 1.0   3.79
END
