TITL LFSO-Li4Fe3S3O2-201029-225556-b03433 0.4097 946.064768 -1.03451040E+004 24.0000 24.3128 24 (Cm) n - 1
REM
REM Run started: Sun, 01 Nov 2020 05:43:46 +0000 in /scratch/scratch/uccabz1/launch_tmp/launcher_2020-10-31-22-53-43-792244
REM CASTEP 19.11| from code version Version unavailable
REM Functional Perdew Burke Ernzerhof Relativity Koelling-Harmon Dispersion off
REM Cut-off 340.0000 eV Grid scale 1.7500 Gmax 16.5316 1/A FBSC none
REM MP grid 3 3 3 Offset 0.000 0.000 0.000 No. kpts 10 Spacing 0.07
REM Total runtime: 98076.4 s
REM Overall efficiency: 67.0769 %
REM
REM
REM
REM compiler GCC version 4.9.2
REM options -cpp -iprefix /scratch/UCL/applications/gcc/4.9.2/bin/../lib/gcc/x86_64-unknown-linux-gnu/4.9.2/ -mtune=corei7 -march=x86-64 -g -O2
REM COMMAND_LINE
REM seed -1179915657 1840409701 1264482211 -1248690736 -87325847 -1478292501 -1660384355 -951238382 2023607401 875786203 -12177884 735009323
REM
REM S 3|1.8|5|6|7|30:31:32(qc=5)
REM O 2|1.5|12|13|15|20:21(qc=5)
REM Li 1|1.3|8|9|10|10U:20(qc=5)
REM Fe 3|2.2|2.0|1.0|8|9|10|40:41:32(qc=5)
REM Fe d:4.0 
REM
CELL 1.54180    7.23173   19.75676   19.75676  152.37407   99.49691   99.49691
LATT -1
SFAC Li O  S  Fe 
Li     1  0.0092110000000  0.4404310000000  0.0641890000000 1.0  -0.02
Li     1  0.0092110000000  0.0641890000000  0.4404310000000 1.0  -0.02
Li     1  0.5059100000000  0.0546770000000 -0.2604810000000 1.0  -0.00
Li     1  0.5059100000000 -0.2604810000000  0.0546770000000 1.0  -0.00
Li     1 -0.5347650000000  0.0446810000000 -0.4988530000000 1.0  -0.12
Li     1 -0.5347650000000 -0.4988530000000  0.0446810000000 1.0  -0.12
Li     1 -0.3273120000000  0.4808060000000 -0.1095480000000 1.0  -0.01
Li     1 -0.3273120000000 -0.1095480000000  0.4808060000000 1.0  -0.01
O      2 -0.2913460000000 -0.2236140000000  0.3069040000000 1.0   0.15
O      2 -0.2913460000000  0.3069040000000 -0.2236140000000 1.0   0.15
O      2  0.2538750000000  0.0178590000000 -0.3579230000000 1.0   0.20
O      2  0.2538750000000 -0.3579230000000  0.0178590000000 1.0   0.20
S      3  0.2606440000000 -0.2505520000000  0.2911370000000 1.0   0.08
S      3  0.2606440000000  0.2911370000000 -0.2505520000000 1.0   0.08
S      3 -0.1183860000000  0.1224390000000 -0.2024410000000 1.0   0.07
S      3 -0.1183860000000 -0.2024410000000  0.1224390000000 1.0   0.07
S      3  0.6836700000000  0.4429380000000  0.0839240000000 1.0   0.11
S      3  0.6836700000000  0.0839240000000  0.4429380000000 1.0   0.11
Fe     4 -0.0111650000000 -0.6295160000000 -0.2023380000000 1.0   3.88
Fe     4 -0.0111650000000 -0.2023380000000 -0.6295160000000 1.0   3.88
Fe     4  0.5102290000000 -0.2139230000000  0.2402720000000 1.0   3.84
Fe     4  0.5102290000000  0.2402720000000 -0.2139230000000 1.0   3.84
Fe     4  0.2395240000000  0.1872740000000 -0.1523480000000 1.0   3.83
Fe     4  0.2395240000000 -0.1523480000000  0.1872740000000 1.0   3.83
END
