TITL LFSO-LiFe3S4O-201028-113206-b85918 -0.0439 142.486075 -4.43827637E+003 6.85431 8.63794 9 (C2) n - 1
REM
REM Run started: Wed, 28 Oct 2020 18:31:35 +0000 in /scratch/scratch/uccabz1/launch_tmp/launcher_2020-10-28-11-32-05-063542
REM CASTEP 19.11| from code version Version unavailable
REM Functional Perdew Burke Ernzerhof Relativity Koelling-Harmon Dispersion off
REM Cut-off 340.0000 eV Grid scale 1.7500 Gmax 16.5316 1/A FBSC none
REM MP grid 5 5 2 Offset 0.000 0.000 0.000 No. kpts 15 Spacing 0.07
REM Total runtime: 26593.2 s
REM Overall efficiency: 92.6923 %
REM
REM
REM
REM compiler GCC version 4.9.2
REM options -cpp -iprefix /scratch/UCL/applications/gcc/4.9.2/bin/../lib/gcc/x86_64-unknown-linux-gnu/4.9.2/ -mtune=corei7 -march=x86-64 -g -O2
REM COMMAND_LINE
REM seed 263747679 -765084605 -61988631 -1475207487 -1807775927 -1604305141 -254426116 1023551906 -86634569 976701133 -617042330 1773705945
REM
REM S 3|1.8|5|6|7|30:31:32(qc=5)
REM O 2|1.5|12|13|15|20:21(qc=5)
REM Li 1|1.3|8|9|10|10U:20(qc=5)
REM Fe 3|2.2|2.0|1.0|8|9|10|40:41:32(qc=5)
REM Fe d:4.0 
REM
CELL 1.54180    3.44958    3.41977   14.22713   84.71421   79.47553   59.71130
LATT -1
SFAC Li O  S  Fe 
Li     1 -0.5467370000000  0.0934730000000  0.0000000000000 1.0  -0.04
O      2 -0.0786730000000  0.1573450000000  0.5000000000000 1.0   0.37
S      3 -0.5482470000000 -0.1670860000000 -0.3142220000000 1.0  -0.22
S      3 -0.2846660000000 -0.1670860000000  0.3142220000000 1.0  -0.22
S      3 -0.0088150000000 -0.5154310000000 -0.1329130000000 1.0  -0.27
S      3 -0.4757540000000 -0.5154310000000  0.1329130000000 1.0  -0.27
Fe     4  0.1163180000000  0.1587630000000  0.2265660000000 1.0   1.71
Fe     4 -0.2750810000000  0.1587630000000 -0.2265660000000 1.0   1.71
Fe     4 -0.4135660000000 -0.1728680000000 -0.5000000000000 1.0   4.06
END
