TITL LFSO-Li5FeS2O2-201026-094118-8af6f3 0.0235 308.112837 -6.68928699E+003 9.99992 10.0628 20 (P3) n - 1
REM
REM Run started: Mon, 26 Oct 2020 12:47:45 +0000 in /scratch/scratch/uccabz1/launch_tmp/launcher_2020-10-26-11-58-48-318472
REM CASTEP 19.11| from code version Version unavailable
REM Functional Perdew Burke Ernzerhof Relativity Koelling-Harmon Dispersion off
REM Cut-off 340.0000 eV Grid scale 1.7500 Gmax 16.5316 1/A FBSC none
REM MP grid 3 3 3 Offset 0.000 0.000 0.000 No. kpts 8 Spacing 0.07
REM Total runtime: 7418.09 s
REM Overall efficiency: 85.2 %
REM
REM
REM
REM compiler GCC version 4.9.2
REM options -cpp -iprefix /lustre/shared/ucl/apps/gcc/4.9.2/bin/../lib/gcc/x86_64-unknown-linux-gnu/4.9.2/ -mtune=corei7 -march=x86-64 -g -Og
REM COMMAND_LINE
REM seed -729915625 835781340 453798809 -1039255707 2140577981 -270103175 395121776 1791684400 1606194967 1224305004 -2061315457 -285563608
REM
REM S 3|1.8|5|6|7|30:31:32(qc=5)
REM O 2|1.5|12|13|15|20:21(qc=5)
REM Li 1|1.3|8|9|10|10U:20(qc=5)
REM Fe 3|2.2|2.0|1.0|8|9|10|40:41:32(qc=5)
REM Fe d:4.0 
REM
CELL 1.54180    5.92985    7.74583    7.74583  120.00000   90.00000   90.00000
LATT -1
SFAC Li O  S  Fe 
Li     1 -0.3217070000000 -0.3952780000000  0.0721730000000 1.0  -0.00
Li     1 -0.3217070000000 -0.0721730000000 -0.4674510000000 1.0  -0.00
Li     1 -0.3217070000000  0.4674510000000  0.3952780000000 1.0  -0.00
Li     1 -0.5437810000000 -0.3441190000000 -0.2615310000000 1.0  -0.03
Li     1 -0.5437810000000  0.2615310000000 -0.0825880000000 1.0  -0.03
Li     1 -0.5437810000000  0.0825880000000  0.3441190000000 1.0  -0.03
Li     1  0.1729370000000  0.3161080000000  0.3173290000000 1.0   0.03
Li     1  0.1729370000000 -0.3173290000000 -0.0012210000000 1.0   0.03
Li     1  0.1729370000000  0.0012210000000 -0.3161080000000 1.0   0.03
Li     1  0.2601830000000  0.3333330000000 -0.3333330000000 1.0  -0.01
O      2  0.4523830000000 -0.4883700000000 -0.1047930000000 1.0   0.16
O      2  0.4523830000000  0.1047930000000 -0.3835760000000 1.0   0.16
O      2  0.4523830000000  0.3835760000000  0.4883700000000 1.0   0.16
O      2 -0.0408050000000  0.3333330000000 -0.3333330000000 1.0   0.49
S      3 -0.1233840000000 -0.2316280000000 -0.3268700000000 1.0   0.25
S      3 -0.1233840000000  0.3268700000000  0.0952410000000 1.0   0.25
S      3 -0.1233840000000 -0.0952410000000  0.2316280000000 1.0   0.25
S      3  0.3794870000000 -0.0000000000000  0.0000000000000 1.0   0.27
Fe     4 -0.2236860000000 -0.0000000000000  0.0000000000000 1.0   3.96
Fe     4 -0.3390670000000  0.3333330000000 -0.3333330000000 1.0   4.05
END
