TITL LFSO-Li2Fe3S3O-201026-003317-2eba55 0.0070 187.077416 -4.33572583E+003 12.0000 12.0839 9 (R3) n - 1
REM
REM Run started: Mon, 26 Oct 2020 04:23:55 +0000 in /lustre/scratch/uccabz1/launch_tmp/launcher_2020-10-26-00-33-16-346290
REM CASTEP 20.1 from code version af48c487+ pr-geom-scf-spinfix Tue Jun 2 15:39:59 2020 +0100
REM Functional Perdew Burke Ernzerhof Relativity Koelling-Harmon Dispersion off
REM Cut-off 340.0000 eV Grid scale 1.7500 Gmax 16.5316 1/A FBSC none
REM MP grid 3 3 3 Offset 0.000 0.000 0.000 No. kpts 6 Spacing 0.07
REM Total runtime: 14026.5 s
REM Overall efficiency: 95.6154 %
REM
REM
REM
REM compiler GCC version 4.9.2
REM options -cpp -iprefix /lustre/shared/ucl/apps/gcc/4.9.2/bin/../lib/gcc/x86_64-unknown-linux-gnu/4.9.2/ -mtune=corei7 -march=x86-64 -g -Og
REM COMMAND_LINE
REM seed -1471421616 800215821 624774334 -998995002 -671458174 -359530127 1060611750 735767903 890530330 -603017732 -326012774 1107521101
REM
REM S 3|1.8|5|6|7|30:31:32(qc=5)
REM O 2|1.5|12|13|15|20:21(qc=5)
REM Li 1|1.3|8|9|10|10U:20(qc=5)
REM Fe 3|2.2|2.0|1.0|8|9|10|40:41:32(qc=5)
REM Fe d:4.0 
REM
CELL 1.54180    5.72036    5.72036    5.72036   91.11249   91.11249   91.11249
LATT -1
SFAC Li O  S  Fe 
Li     1 -0.2310050000000 -0.2310050000000 -0.2310050000000 1.0  -0.10
Li     1  0.1400050000000  0.1400050000000  0.1400050000000 1.0  -0.02
O      2  0.4373580000000  0.4373580000000  0.4373580000000 1.0   0.20
S      3 -0.0897380000000 -0.1242820000000 -0.6076710000000 1.0   0.13
S      3 -0.6076710000000 -0.0897380000000 -0.1242820000000 1.0   0.13
S      3 -0.1242820000000 -0.6076710000000 -0.0897380000000 1.0   0.13
Fe     4  0.2349970000000 -0.3092200000000 -0.4495140000000 1.0   3.84
Fe     4 -0.4495140000000  0.2349970000000 -0.3092200000000 1.0   3.84
Fe     4 -0.3092200000000 -0.4495140000000  0.2349970000000 1.0   3.84
END
