TITL LFSO-Li2Fe4S3O2-201026-115823-9e4cab 0.3725 497.144229 -1.12629851E+004 -0.428359E-03 28.7080 22 (R3) n - 1
REM
REM Run started: Tue, 27 Oct 2020 15:02:16 +0000 in /scratch/scratch/uccabz1/launch_tmp/launcher_2020-10-27-04-15-21-670887
REM CASTEP 19.11| from code version Version unavailable
REM Functional Perdew Burke Ernzerhof Relativity Koelling-Harmon Dispersion off
REM Cut-off 340.0000 eV Grid scale 1.7500 Gmax 16.5316 1/A FBSC none
REM MP grid 3 3 3 Offset 0.000 0.000 0.000 No. kpts 6 Spacing 0.07
REM Total runtime: 84969.4 s
REM Overall efficiency: 65.3846 %
REM
REM
REM
REM compiler GCC version 4.9.2
REM options -cpp -iprefix /scratch/UCL/applications/gcc/4.9.2/bin/../lib/gcc/x86_64-unknown-linux-gnu/4.9.2/ -mtune=corei7 -march=x86-64 -g -O2
REM COMMAND_LINE
REM seed -1141971254 -268155420 1015131289 -1113312987 146525266 -1403669087 -1581385347 2008389362 887790949 798070582 1944968428 -1563682075
REM
REM S 3|1.8|5|6|7|30:31:32(qc=5)
REM O 2|1.5|12|13|15|20:21(qc=5)
REM Li 1|1.3|8|9|10|10U:20(qc=5)
REM Fe 3|2.2|2.0|1.0|8|9|10|40:41:32(qc=5)
REM Fe d:4.0 
REM
CELL 1.54180   12.42234   12.42234   12.42234   32.68190   32.68190   32.68190
LATT -1
SFAC Li O  S  Fe 
Li     1  0.0405020000000  0.0541030000000  0.4723830000000 1.0   0.08
Li     1  0.4723830000000  0.0405020000000  0.0541030000000 1.0   0.08
Li     1  0.0541030000000  0.4723830000000  0.0405020000000 1.0   0.08
Li     1  0.2952780000000  0.2952780000000  0.2952780000000 1.0  -0.01
O      2  0.4869500000000 -0.2993240000000 -0.0325210000000 1.0   0.01
O      2 -0.0325210000000  0.4869500000000 -0.2993240000000 1.0   0.01
O      2 -0.2993240000000 -0.0325210000000  0.4869500000000 1.0   0.01
O      2  0.5141450000000  0.5141450000000  0.5141450000000 1.0  -0.81
S      3 -0.1630500000000  0.3901060000000  0.1644840000000 1.0   0.04
S      3  0.1644840000000 -0.1630500000000  0.3901060000000 1.0   0.04
S      3  0.3901060000000  0.1644840000000 -0.1630500000000 1.0   0.04
S      3 -0.0436700000000 -0.4563520000000  0.2794190000000 1.0  -0.02
S      3  0.2794190000000 -0.0436700000000 -0.4563520000000 1.0  -0.02
S      3 -0.4563520000000  0.2794190000000 -0.0436700000000 1.0  -0.02
Fe     4  0.2293150000000 -0.3225340000000 -0.0989400000000 1.0  -3.20
Fe     4 -0.0989400000000  0.2293150000000 -0.3225340000000 1.0  -3.20
Fe     4 -0.3225340000000 -0.0989400000000  0.2293150000000 1.0  -3.20
Fe     4 -0.4943710000000 -0.3153140000000  0.1280400000000 1.0   3.82
Fe     4  0.1280400000000 -0.4943710000000 -0.3153140000000 1.0   3.82
Fe     4 -0.3153140000000  0.1280400000000 -0.4943710000000 1.0   3.82
Fe     4 -0.2870970000000 -0.2870970000000 -0.2870970000000 1.0   2.18
Fe     4 -0.4367510000000 -0.4367510000000 -0.4367510000000 1.0  -3.56
END
