TITL LFSO-Li6FeS3O-201027-111457-89367b -0.0814 430.537399 -6.82177506E+003 7.99853 8.19534 22 (C2221) n - 1
REM
REM Run started: Tue, 27 Oct 2020 23:26:57 +0000 in /lustre/scratch/uccabz1/launch_tmp/launcher_2020-10-27-11-14-55-473920
REM CASTEP 20.1 from code version af48c487+ pr-geom-scf-spinfix Tue Jun 2 15:39:59 2020 +0100
REM Functional Perdew Burke Ernzerhof Relativity Koelling-Harmon Dispersion off
REM Cut-off 340.0000 eV Grid scale 1.7500 Gmax 16.5316 1/A FBSC none
REM MP grid 4 4 1 Offset 0.000 0.000 0.000 No. kpts 6 Spacing 0.07
REM Total runtime: 48439.3 s
REM Overall efficiency: 97.5 %
REM
REM
REM
REM compiler GCC version 4.9.2
REM options -cpp -iprefix /lustre/shared/ucl/apps/gcc/4.9.2/bin/../lib/gcc/x86_64-unknown-linux-gnu/4.9.2/ -mtune=corei7 -march=x86-64 -g -Og
REM COMMAND_LINE
REM seed -479958378 -639219419 -1695304189 219262996 1444065908 619747478 193340895 -2119148087 2140967196 -1017146996 1287120641 1281998711
REM
REM S 3|1.8|5|6|7|30:31:32(qc=5)
REM O 2|1.5|12|13|15|20:21(qc=5)
REM Li 1|1.3|8|9|10|10U:20(qc=5)
REM Fe 3|2.2|2.0|1.0|8|9|10|40:41:32(qc=5)
REM Fe d:4.0 
REM
CELL 1.54180    6.32290    6.32290   15.56876   90.00000   90.00000  136.23439
LATT -1
SFAC Li O  S  Fe 
Li     1 -0.0516670000000  0.1930670000000  0.1562410000000 1.0   0.02
Li     1  0.0516670000000 -0.1930670000000 -0.3437590000000 1.0   0.02
Li     1 -0.1930670000000  0.0516670000000  0.3437590000000 1.0   0.02
Li     1  0.1930670000000 -0.0516670000000 -0.1562410000000 1.0   0.02
Li     1 -0.2271600000000 -0.8342520000000 -0.4606290000000 1.0  -0.03
Li     1  0.2271600000000  0.8342520000000  0.0393710000000 1.0  -0.03
Li     1  0.8342520000000  0.2271600000000 -0.0393710000000 1.0  -0.03
Li     1 -0.8342520000000 -0.2271600000000  0.4606290000000 1.0  -0.03
Li     1  0.1531150000000  0.2877310000000 -0.3067270000000 1.0  -0.02
Li     1 -0.1531150000000 -0.2877310000000  0.1932730000000 1.0  -0.02
Li     1 -0.2877310000000 -0.1531150000000 -0.1932730000000 1.0  -0.02
Li     1  0.2877310000000  0.1531150000000  0.3067270000000 1.0  -0.02
O      2  0.0322810000000 -0.0322810000000 -0.2500000000000 1.0   0.01
O      2 -0.0322810000000  0.0322810000000  0.2500000000000 1.0   0.01
S      3 -0.3471700000000 -0.7147420000000  0.4063630000000 1.0   0.08
S      3  0.3471700000000  0.7147420000000 -0.0936370000000 1.0   0.08
S      3  0.7147420000000  0.3471700000000  0.0936370000000 1.0   0.08
S      3 -0.7147420000000 -0.3471700000000 -0.4063630000000 1.0   0.08
S      3  0.0228610000000  0.0228610000000  0.0000000000000 1.0   0.11
S      3 -0.0228610000000 -0.0228610000000  0.5000000000000 1.0   0.11
Fe     4  0.5227770000000  0.5227770000000  0.0000000000000 1.0   3.79
Fe     4 -0.5227770000000 -0.5227770000000  0.5000000000000 1.0   3.79
END
