TITL LFSO-Li4Fe3S3O2-201029-184912-a21983 0.1407 883.644344 -1.03445218E+004 24.0000 24.7453 24 (R3) n - 1
REM
REM Run started: Fri, 30 Oct 2020 19:38:51 +0000 in /scratch/scratch/uccabz1/launch_tmp/launcher_2020-10-29-22-32-07-693507
REM CASTEP 19.11| from code version Version unavailable
REM Functional Perdew Burke Ernzerhof Relativity Koelling-Harmon Dispersion off
REM Cut-off 340.0000 eV Grid scale 1.7500 Gmax 16.5316 1/A FBSC none
REM MP grid 2 2 2 Offset 0.000 0.000 0.000 No. kpts 2 Spacing 0.07
REM Total runtime: 96575.3 s
REM Overall efficiency: 69.7857 %
REM
REM
REM
REM compiler GCC version 4.9.2
REM options -cpp -iprefix /scratch/UCL/applications/gcc/4.9.2/bin/../lib/gcc/x86_64-unknown-linux-gnu/4.9.2/ -mtune=corei7 -march=x86-64 -g -O2
REM COMMAND_LINE
REM seed 1622994128 742788309 186731401 -533679675 1189179142 949501886 -240249141 637944202 807436302 -1437620010 656542739 529907191
REM
REM S 3|1.8|5|6|7|30:31:32(qc=5)
REM O 2|1.5|12|13|15|20:21(qc=5)
REM Li 1|1.3|8|9|10|10U:20(qc=5)
REM Fe 3|2.2|2.0|1.0|8|9|10|40:41:32(qc=5)
REM Fe d:4.0 
REM
CELL 1.54180   14.47729   14.47729   14.47729   34.83257   34.83257   34.83257
LATT -1
SFAC Li O  S  Fe 
Li     1  0.0116480000000 -0.1766990000000  0.3022280000000 1.0  -0.05
Li     1  0.3022280000000  0.0116480000000 -0.1766990000000 1.0  -0.05
Li     1 -0.1766990000000  0.3022280000000  0.0116480000000 1.0  -0.05
Li     1 -0.1848950000000  0.0366590000000 -0.4331620000000 1.0  -0.04
Li     1 -0.4331620000000 -0.1848950000000  0.0366590000000 1.0  -0.04
Li     1  0.0366590000000 -0.4331620000000 -0.1848950000000 1.0  -0.04
Li     1  0.1876120000000  0.1876120000000  0.1876120000000 1.0  -0.02
Li     1 -0.0008070000000 -0.0008070000000 -0.0008070000000 1.0   0.01
O      2  0.1290390000000  0.3701790000000 -0.0191210000000 1.0   0.21
O      2 -0.0191210000000  0.1290390000000  0.3701790000000 1.0   0.21
O      2  0.3701790000000 -0.0191210000000  0.1290390000000 1.0   0.21
O      2  0.4006050000000  0.4006050000000  0.4006050000000 1.0   0.29
S      3  0.0415370000000 -0.2655380000000 -0.4610190000000 1.0   0.05
S      3 -0.4610190000000  0.0415370000000 -0.2655380000000 1.0   0.05
S      3 -0.2655380000000 -0.4610190000000  0.0415370000000 1.0   0.05
S      3  0.2665130000000 -0.2508110000000  0.0554740000000 1.0   0.08
S      3  0.0554740000000  0.2665130000000 -0.2508110000000 1.0   0.08
S      3 -0.2508110000000  0.0554740000000  0.2665130000000 1.0   0.08
Fe     4 -0.0895190000000  0.3311180000000  0.1777100000000 1.0   3.81
Fe     4  0.1777100000000 -0.0895190000000  0.3311180000000 1.0   3.81
Fe     4  0.3311180000000  0.1777100000000 -0.0895190000000 1.0   3.81
Fe     4  0.4511920000000  0.5875390000000  0.1548030000000 1.0   3.85
Fe     4  0.1548030000000  0.4511920000000  0.5875390000000 1.0   3.85
Fe     4  0.5875390000000  0.1548030000000  0.4511920000000 1.0   3.85
END
