TITL LFSO-Li5FeS2O2-201026-125151-e17932 0.0565 383.845631 -6.68866693E+003 8.00005 8.32953 20 (P3) n - 1
REM
REM Run started: Mon, 26 Oct 2020 16:37:45 +0000 in /lustre/scratch/uccabz1/launch_tmp/launcher_2020-10-26-12-51-49-536076
REM CASTEP 20.1 from code version af48c487+ pr-geom-scf-spinfix Tue Jun 2 15:39:59 2020 +0100
REM Functional Perdew Burke Ernzerhof Relativity Koelling-Harmon Dispersion off
REM Cut-off 340.0000 eV Grid scale 1.7500 Gmax 16.5316 1/A FBSC none
REM MP grid 3 3 3 Offset 0.000 0.000 0.000 No. kpts 8 Spacing 0.07
REM Total runtime: 11877.6 s
REM Overall efficiency: 74.8333 %
REM
REM
REM
REM compiler GCC version 4.9.2
REM options -cpp -iprefix /lustre/shared/ucl/apps/gcc/4.9.2/bin/../lib/gcc/x86_64-unknown-linux-gnu/4.9.2/ -mtune=corei7 -march=x86-64 -g -Og
REM COMMAND_LINE
REM seed -2044138840 -906974988 -203892945 -354210276 655823690 266495593 974905609 -1569705232 1832490335 -76336333 1514062979 -673340482
REM
REM S 3|1.8|5|6|7|30:31:32(qc=5)
REM O 2|1.5|12|13|15|20:21(qc=5)
REM Li 1|1.3|8|9|10|10U:20(qc=5)
REM Fe 3|2.2|2.0|1.0|8|9|10|40:41:32(qc=5)
REM Fe d:4.0 
REM
CELL 1.54180    8.06674    8.06674    6.81130   90.00000   90.00000  120.00000
LATT -1
SFAC Li O  S  Fe 
Li     1 -0.0619730000000  0.3545920000000 -0.1471780000000 1.0  -0.01
Li     1  0.4165650000000  0.0619730000000 -0.1471780000000 1.0  -0.01
Li     1 -0.3545920000000 -0.4165650000000 -0.1471780000000 1.0  -0.01
Li     1  0.0908050000000 -0.3076720000000 -0.2884340000000 1.0  -0.00
Li     1 -0.3984770000000 -0.0908050000000 -0.2884340000000 1.0  -0.00
Li     1  0.3076720000000  0.3984770000000 -0.2884340000000 1.0  -0.00
Li     1  0.5364840000000  0.4697900000000  0.3201680000000 1.0  -0.03
Li     1 -0.0666940000000 -0.5364840000000  0.3201680000000 1.0  -0.03
Li     1 -0.4697900000000  0.0666940000000  0.3201680000000 1.0  -0.03
Li     1  0.0000000000000 -0.0000000000000  1.0855950000000 1.0   0.08
O      2  0.5115300000000  0.0513050000000 -0.3928290000000 1.0   0.10
O      2 -0.4602240000000 -0.5115300000000 -0.3928290000000 1.0   0.10
O      2 -0.0513050000000  0.4602240000000 -0.3928290000000 1.0   0.10
O      2 -0.3333330000000  0.3333330000000  0.2672260000000 1.0  -0.02
S      3  0.1798450000000  0.3411340000000  0.0563200000000 1.0   0.11
S      3  0.1612890000000 -0.1798450000000  0.0563200000000 1.0   0.11
S      3 -0.3411340000000 -0.1612890000000  0.0563200000000 1.0   0.11
S      3 -0.3333330000000  0.3333330000000  0.0055930000000 1.0  -0.01
Fe     4 -0.3333330000000  0.3333330000000 -0.3891230000000 1.0   3.76
Fe     4  0.3333330000000 -0.3333330000000  0.0832790000000 1.0   3.66
END
