TITL LFSO-Li4Fe3S4O-201029-052411-651620 0.0002 281.781231 -5.03889902E+003 12.0000 12.1644 12 (Cm) n - 1
REM
REM Run started: Thu, 29 Oct 2020 06:31:02 +0000 in /scratch/scratch/uccabz1/launch_tmp/launcher_2020-10-29-05-24-10-093363
REM CASTEP 19.11| from code version Version unavailable
REM Functional Perdew Burke Ernzerhof Relativity Koelling-Harmon Dispersion off
REM Cut-off 340.0000 eV Grid scale 1.7500 Gmax 16.5316 1/A FBSC none
REM MP grid 4 2 2 Offset 0.000 0.000 0.000 No. kpts 6 Spacing 0.07
REM Total runtime: 4645.36 s
REM Overall efficiency: 81.1429 %
REM
REM
REM
REM compiler GCC version 4.9.2
REM options -cpp -iprefix /scratch/UCL/applications/gcc/4.9.2/bin/../lib/gcc/x86_64-unknown-linux-gnu/4.9.2/ -mtune=corei7 -march=x86-64 -g -O2
REM COMMAND_LINE
REM seed -71396128 -814388464 -1751648370 1904897183 -1209743845 -1926099629 -1027736026 589688211 -264927140 571989465 -618813673 -1668758699
REM
REM S 3|1.8|5|6|7|30:31:32(qc=5)
REM O 2|1.5|12|13|15|20:21(qc=5)
REM Li 1|1.3|8|9|10|10U:20(qc=5)
REM Fe 3|2.2|2.0|1.0|8|9|10|40:41:32(qc=5)
REM Fe d:4.0 
REM
CELL 1.54180    4.61794    8.41478    8.41478   62.34815   78.58118   78.58118
LATT -1
SFAC Li O  S  Fe 
Li     1  0.1131160000000  0.2962940000000 -0.3875400000000 1.0   0.00
Li     1  0.1131160000000 -0.3875400000000  0.2962940000000 1.0   0.00
Li     1 -0.2779980000000  0.0038250000000 -0.4958710000000 1.0  -0.06
Li     1 -0.2779980000000 -0.4958710000000  0.0038250000000 1.0  -0.06
O      2  0.2360310000000  0.5335680000000  0.5335680000000 1.0   0.18
S      3 -0.2401070000000  0.2983310000000 -0.1287500000000 1.0   0.19
S      3 -0.2401070000000 -0.1287500000000  0.2983310000000 1.0   0.19
S      3  0.1949830000000  0.0698710000000 -0.5075170000000 1.0   0.11
S      3  0.1949830000000 -0.5075170000000  0.0698710000000 1.0   0.11
Fe     4  0.2709470000000  0.4561260000000 -0.2108200000000 1.0   3.78
Fe     4  0.2709470000000 -0.2108200000000  0.4561260000000 1.0   3.78
Fe     4  0.4520730000000  0.1724030000000  0.1724030000000 1.0   3.78
END
