TITL LFSO-Li6FeS3O-201027-161222-cc3536 -0.0050 171.937540 -3.41055821E+003 3.99280 4.05821 11 (P2) n - 1
REM
REM Run started: Tue, 27 Oct 2020 19:12:59 +0000 in /lustre/scratch/uccabz1/launch_tmp/launcher_2020-10-27-16-12-20-990829
REM CASTEP 20.1 from code version af48c487+ pr-geom-scf-spinfix Tue Jun 2 15:39:59 2020 +0100
REM Functional Perdew Burke Ernzerhof Relativity Koelling-Harmon Dispersion off
REM Cut-off 340.0000 eV Grid scale 1.7500 Gmax 16.5316 1/A FBSC none
REM MP grid 3 5 2 Offset 0.000 0.000 0.000 No. kpts 9 Spacing 0.07
REM Total runtime: 11705.8 s
REM Overall efficiency: 90.9167 %
REM
REM
REM
REM compiler GCC version 4.9.2
REM options -cpp -iprefix /lustre/shared/ucl/apps/gcc/4.9.2/bin/../lib/gcc/x86_64-unknown-linux-gnu/4.9.2/ -mtune=corei7 -march=x86-64 -g -Og
REM COMMAND_LINE
REM seed 825018896 -158608462 -1162264878 -933534439 1128706304 1125921356 610038862 -933378604 1435375893 1860486628 906392394 954822854
REM
REM S 3|1.8|5|6|7|30:31:32(qc=5)
REM O 2|1.5|12|13|15|20:21(qc=5)
REM Li 1|1.3|8|9|10|10U:20(qc=5)
REM Fe 3|2.2|2.0|1.0|8|9|10|40:41:32(qc=5)
REM Fe d:4.0 
REM
CELL 1.54180    6.87285    3.43186    9.84522   90.00000   47.76734   90.00000
LATT -1
SFAC Li O  S  Fe 
Li     1  0.2676590000000  0.1775680000000  0.2864960000000 1.0   0.03
Li     1 -0.2676590000000  0.1775680000000 -0.2864960000000 1.0   0.03
Li     1  0.1782280000000  0.7517300000000 -0.1435730000000 1.0  -0.07
Li     1 -0.1782280000000  0.7517300000000  0.1435730000000 1.0  -0.07
Li     1  0.1783050000000  0.2327650000000  0.0814780000000 1.0   0.01
Li     1 -0.1783050000000  0.2327650000000 -0.0814780000000 1.0   0.01
O      2  0.0000000000000 -0.7502200000000  0.0000000000000 1.0  -0.00
S      3 -0.2016820000000  0.1719270000000  0.4363320000000 1.0   0.18
S      3  0.2016820000000  0.1719270000000 -0.4363320000000 1.0   0.18
S      3  0.5000000000000 -0.2738940000000  0.0000000000000 1.0   0.01
Fe     4 -0.5000000000000 -0.3308980000000  0.5000000000000 1.0   3.70
END
