TITL LFSO-Li2Fe2S2O-201022-025303-c8420d -0.0095 244.940465 -6.33975214E+003 16.0000 16.1285 14 (P21/c) n - 1
REM
REM Run started: Thu, 22 Oct 2020 05:25:16 +0100 in /lustre/scratch/uccabz1/launch_tmp/launcher_2020-10-22-01-53-01-993773
REM CASTEP 20.1 from code version af48c487+ pr-geom-scf-spinfix Tue Jun 2 15:39:59 2020 +0100
REM Functional Perdew Burke Ernzerhof Relativity Koelling-Harmon Dispersion off
REM Cut-off 340.0000 eV Grid scale 1.7500 Gmax 16.5316 1/A FBSC none
REM MP grid 5 2 2 Offset 0.000 0.000 0.000 No. kpts 5 Spacing 0.07
REM Total runtime: 9350.76 s
REM Overall efficiency: 82.1818 %
REM
REM
REM
REM compiler GCC version 4.9.2
REM options -cpp -iprefix /lustre/shared/ucl/apps/gcc/4.9.2/bin/../lib/gcc/x86_64-unknown-linux-gnu/4.9.2/ -mtune=corei7 -march=x86-64 -g -Og
REM COMMAND_LINE
REM seed 274082834 -1061952408 85139822 -2085022832 -556457069 776896098 -1042755838 -34537658 -882365808 -1689614109 1626933494 301410699
REM
REM S 3|1.8|5|6|7|30:31:32(qc=5)
REM O 2|1.5|12|13|15|20:21(qc=5)
REM Li 1|1.3|8|9|10|10U:20(qc=5)
REM Fe 3|2.2|2.0|1.0|8|9|10|40:41:32(qc=5)
REM Fe d:4.0 
REM
CELL 1.54180    3.63048    7.20484   10.31845   90.00000  114.83470   90.00000
LATT -1
SFAC Li O  S  Fe 
Li     1 -0.0031690000000  0.3140400000000 -0.0267600000000 1.0  -0.06
Li     1 -0.4968310000000 -0.1859600000000 -0.4732400000000 1.0  -0.06
Li     1  0.0031690000000 -0.3140400000000  0.0267600000000 1.0  -0.06
Li     1  0.4968310000000  0.1859600000000  0.4732400000000 1.0  -0.06
O      2  0.0000000000000  0.0000000000000  0.5000000000000 1.0   0.20
O      2 -0.5000000000000  0.5000000000000 -0.0000000000000 1.0   0.20
S      3 -0.1160910000000 -0.1658530000000 -0.2072140000000 1.0   0.08
S      3 -0.3839090000000  0.3341470000000 -0.2927860000000 1.0   0.08
S      3  0.1160910000000  0.1658530000000  0.2072140000000 1.0   0.08
S      3  0.3839090000000 -0.3341470000000  0.2927860000000 1.0   0.08
Fe     4  0.2671930000000  0.0368830000000 -0.2923790000000 1.0   3.88
Fe     4  0.2328070000000  0.5368830000000 -0.2076210000000 1.0   3.88
Fe     4 -0.2671930000000 -0.0368830000000  0.2923790000000 1.0   3.88
Fe     4 -0.2328070000000 -0.5368830000000  0.2076210000000 1.0   3.88
END
