TITL LFSO-Li6FeS3O-201027-142734-d81cf9 0.0215 366.256065 -6.82418776E+003 8.00000 8.15599 22 (P-1) n - 1
REM
REM Run started: Tue, 27 Oct 2020 20:27:18 +0000 in /lustre/scratch/uccabz1/launch_tmp/launcher_2020-10-27-14-27-32-785286
REM CASTEP 20.1 from code version af48c487+ pr-geom-scf-spinfix Tue Jun 2 15:39:59 2020 +0100
REM Functional Perdew Burke Ernzerhof Relativity Koelling-Harmon Dispersion off
REM Cut-off 340.0000 eV Grid scale 1.7500 Gmax 16.5316 1/A FBSC none
REM MP grid 3 3 3 Offset 0.000 0.000 0.000 No. kpts 14 Spacing 0.07
REM Total runtime: 22868.6 s
REM Overall efficiency: 90 %
REM
REM
REM
REM compiler GCC version 4.9.2
REM options -cpp -iprefix /lustre/shared/ucl/apps/gcc/4.9.2/bin/../lib/gcc/x86_64-unknown-linux-gnu/4.9.2/ -mtune=corei7 -march=x86-64 -g -Og
REM COMMAND_LINE
REM seed -261195081 2039391750 -1724043261 -1316406335 1197551265 -713113712 -956406784 877909460 834055317 -846685980 -908505110 1213871708
REM
REM S 3|1.8|5|6|7|30:31:32(qc=5)
REM O 2|1.5|12|13|15|20:21(qc=5)
REM Li 1|1.3|8|9|10|10U:20(qc=5)
REM Fe 3|2.2|2.0|1.0|8|9|10|40:41:32(qc=5)
REM Fe d:4.0 
REM
CELL 1.54180    7.32893    9.13679    9.51872  118.15403  130.60700   92.07588
LATT -1
SFAC Li O  S  Fe 
Li     1  0.3671400000000 -0.0548930000000 -0.2168270000000 1.0  -0.01
Li     1 -0.3671400000000  0.0548930000000  0.2168270000000 1.0  -0.01
Li     1 -0.1231520000000  0.0291860000000 -0.3032700000000 1.0   0.00
Li     1  0.1231520000000 -0.0291860000000  0.3032700000000 1.0   0.00
Li     1 -0.1397050000000  0.2890770000000  0.0295870000000 1.0  -0.02
Li     1  0.1397050000000 -0.2890770000000 -0.0295870000000 1.0  -0.02
Li     1 -0.1142010000000 -0.3731090000000 -0.4934820000000 1.0  -0.01
Li     1  0.1142010000000  0.3731090000000  0.4934820000000 1.0  -0.01
Li     1  0.2758380000000  0.2336180000000  0.1680760000000 1.0   0.02
Li     1 -0.2758380000000 -0.2336180000000 -0.1680760000000 1.0   0.02
Li     1 -0.7572010000000 -0.4021050000000  0.2197910000000 1.0  -0.03
Li     1  0.7572010000000  0.4021050000000 -0.2197910000000 1.0  -0.03
O      2  0.0401180000000  0.3084480000000 -0.0556960000000 1.0   0.11
O      2 -0.0401180000000 -0.3084480000000  0.0556960000000 1.0   0.11
S      3 -0.4097840000000 -0.2706220000000  0.2517410000000 1.0   0.06
S      3  0.4097840000000  0.2706220000000 -0.2517410000000 1.0   0.06
S      3 -0.1937680000000 -0.6194310000000 -0.4578850000000 1.0   0.06
S      3  0.1937680000000  0.6194310000000  0.4578850000000 1.0   0.06
S      3 -0.1443590000000  0.0822940000000  0.1104750000000 1.0   0.01
S      3  0.1443590000000 -0.0822940000000 -0.1104750000000 1.0   0.01
Fe     4  0.1942170000000  0.3781340000000 -0.1380880000000 1.0   3.81
Fe     4 -0.1942170000000 -0.3781340000000  0.1380880000000 1.0   3.81
END
