TITL LFSO-Li5FeSO3-201027-000136-5ba0e8 0.0191 280.073773 -6.95635414E+003 9.99992 10.0788 20 (P3) n - 1
REM
REM Run started: Tue, 27 Oct 2020 02:12:08 +0000 in /lustre/scratch/uccabz1/launch_tmp/launcher_2020-10-27-00-01-35-197884
REM CASTEP 20.1 from code version af48c487+ pr-geom-scf-spinfix Tue Jun 2 15:39:59 2020 +0100
REM Functional Perdew Burke Ernzerhof Relativity Koelling-Harmon Dispersion off
REM Cut-off 340.0000 eV Grid scale 1.7500 Gmax 16.5316 1/A FBSC none
REM MP grid 3 3 2 Offset 0.000 0.000 0.000 No. kpts 5 Spacing 0.07
REM Total runtime: 7877.06 s
REM Overall efficiency: 67.875 %
REM
REM
REM
REM compiler GCC version 4.9.2
REM options -cpp -iprefix /lustre/shared/ucl/apps/gcc/4.9.2/bin/../lib/gcc/x86_64-unknown-linux-gnu/4.9.2/ -mtune=corei7 -march=x86-64 -g -Og
REM COMMAND_LINE
REM seed -326075113 1451383465 1483464157 -1225239311 1171283145 -1542296071 1238611202 -1022020184 -1609996976 1306199641 -1989240952 -241420535
REM
REM S 3|1.8|5|6|7|30:31:32(qc=5)
REM O 2|1.5|12|13|15|20:21(qc=5)
REM Li 1|1.3|8|9|10|10U:20(qc=5)
REM Fe 3|2.2|2.0|1.0|8|9|10|40:41:32(qc=5)
REM Fe d:4.0 
REM
CELL 1.54180    6.47500    6.47500    7.71370   90.00000   90.00000  120.00000
LATT -1
SFAC Li O  S  Fe 
Li     1 -0.0854660000000  0.1976900000000  0.3412300000000 1.0  -0.02
Li     1 -0.1976900000000 -0.2831560000000  0.3412300000000 1.0  -0.02
Li     1  0.2831560000000  0.0854660000000  0.3412300000000 1.0  -0.02
Li     1  0.1332690000000 -0.1599650000000  0.0341820000000 1.0   0.02
Li     1  0.1599650000000  0.2932340000000  0.0341820000000 1.0   0.02
Li     1 -0.2932340000000 -0.1332690000000  0.0341820000000 1.0   0.02
Li     1 -0.6967040000000  0.1656150000000 -0.3846170000000 1.0   0.01
Li     1 -0.1656150000000  0.1376810000000 -0.3846170000000 1.0   0.01
Li     1 -0.1376810000000  0.6967040000000 -0.3846170000000 1.0   0.01
Li     1  0.3333330000000 -0.3333330000000  0.3184200000000 1.0   0.01
O      2  0.3314120000000  0.1505130000000  0.1065720000000 1.0   0.24
O      2 -0.1505130000000  0.1808990000000  0.1065720000000 1.0   0.24
O      2 -0.1808990000000 -0.3314120000000  0.1065720000000 1.0   0.24
O      2 -0.3450920000000 -0.1794940000000 -0.4827160000000 1.0   0.23
O      2  0.1794940000000 -0.1655980000000 -0.4827160000000 1.0   0.23
O      2  0.1655980000000  0.3450920000000 -0.4827160000000 1.0   0.23
S      3  0.3333330000000 -0.3333330000000 -0.0881570000000 1.0   0.21
S      3 -0.3333330000000  0.3333330000000  0.4560410000000 1.0   0.20
Fe     4 -0.3333330000000  0.3333330000000  0.1356610000000 1.0   4.07
Fe     4  0.3333330000000 -0.3333330000000 -0.3812730000000 1.0   4.03
END
