TITL LFSO-Li4Fe3S3O2-201029-042047-5f3329 -0.0229 640.823415 -1.03424119E+004 23.9927 24.4615 24 (R3) n - 1
REM
REM Run started: Thu, 29 Oct 2020 09:46:58 +0000 in /lustre/scratch/uccabz1/launch_tmp/launcher_2020-10-29-04-20-44-738426
REM CASTEP 20.1 from code version af48c487+ pr-geom-scf-spinfix Tue Jun 2 15:39:59 2020 +0100
REM Functional Perdew Burke Ernzerhof Relativity Koelling-Harmon Dispersion off
REM Cut-off 340.0000 eV Grid scale 1.7500 Gmax 16.5316 1/A FBSC none
REM MP grid 2 2 2 Offset 0.000 0.000 0.000 No. kpts 2 Spacing 0.07
REM Total runtime: 20122.2 s
REM Overall efficiency: 79.8889 %
REM
REM
REM
REM compiler GCC version 4.9.2
REM options -cpp -iprefix /lustre/shared/ucl/apps/gcc/4.9.2/bin/../lib/gcc/x86_64-unknown-linux-gnu/4.9.2/ -mtune=corei7 -march=x86-64 -g -Og
REM COMMAND_LINE
REM seed 1478721158 392964118 -1630123170 -1531040286 -1305250159 1340706773 712424704 1226966896 917317263 563015 592101961 -910575398
REM
REM S 3|1.8|5|6|7|30:31:32(qc=5)
REM O 2|1.5|12|13|15|20:21(qc=5)
REM Li 1|1.3|8|9|10|10U:20(qc=5)
REM Fe 3|2.2|2.0|1.0|8|9|10|40:41:32(qc=5)
REM Fe d:4.0 
REM
CELL 1.54180    9.82401    9.82401    9.82401   58.07428   58.07428   58.07428
LATT -1
SFAC Li O  S  Fe 
Li     1 -0.3169140000000 -0.5546360000000 -0.1527660000000 1.0  -0.03
Li     1 -0.5546360000000 -0.1527660000000 -0.3169140000000 1.0  -0.03
Li     1 -0.1527660000000 -0.3169140000000 -0.5546360000000 1.0  -0.03
Li     1 -0.3888690000000  0.3338120000000  0.2585130000000 1.0  -0.04
Li     1  0.3338120000000  0.2585130000000 -0.3888690000000 1.0  -0.04
Li     1  0.2585130000000 -0.3888690000000  0.3338120000000 1.0  -0.04
Li     1 -0.2134040000000 -0.2134040000000 -0.2134040000000 1.0  -0.12
Li     1 -0.5335320000000 -0.5335320000000 -0.5335320000000 1.0  -0.03
O      2 -0.2895250000000  0.2606670000000  0.4356570000000 1.0   0.17
O      2  0.2606670000000  0.4356570000000 -0.2895250000000 1.0   0.17
O      2  0.4356570000000 -0.2895250000000  0.2606670000000 1.0   0.17
O      2  0.3909880000000  0.3909880000000  0.3909880000000 1.0   0.13
S      3 -0.3980910000000 -0.0806620000000  0.3821490000000 1.0   0.05
S      3 -0.0806620000000  0.3821490000000 -0.3980910000000 1.0   0.05
S      3  0.3821490000000 -0.3980910000000 -0.0806620000000 1.0   0.05
S      3 -0.0232280000000 -0.2067950000000 -0.5025980000000 1.0   0.10
S      3 -0.2067950000000 -0.5025980000000 -0.0232280000000 1.0   0.10
S      3 -0.5025980000000 -0.0232280000000 -0.2067950000000 1.0   0.10
Fe     4  0.0313040000000  0.5118830000000 -0.2857100000000 1.0   3.85
Fe     4  0.5118830000000 -0.2857100000000  0.0313040000000 1.0   3.85
Fe     4 -0.2857100000000  0.0313040000000  0.5118830000000 1.0   3.85
Fe     4 -0.1663350000000  0.3035870000000 -0.5086850000000 1.0   3.89
Fe     4  0.3035870000000 -0.5086850000000 -0.1663350000000 1.0   3.89
Fe     4 -0.5086850000000 -0.1663350000000  0.3035870000000 1.0   3.89
END
