TITL LFSO-Li2Fe4S4O-201024-201155-e521de -0.3020 274.326313 -5.49944216E+003 15.3500 15.5050 11 (C2) n - 1
REM
REM Run started: Sun, 25 Oct 2020 00:51:18 +0100 in /lustre/scratch/uccabz1/launch_tmp/launcher_2020-10-24-23-18-46-359629
REM CASTEP 20.1 from code version af48c487+ pr-geom-scf-spinfix Tue Jun 2 15:39:59 2020 +0100
REM Functional Perdew Burke Ernzerhof Relativity Koelling-Harmon Dispersion off
REM Cut-off 340.0000 eV Grid scale 1.7500 Gmax 16.5316 1/A FBSC none
REM MP grid 3 3 3 Offset 0.000 0.000 0.000 No. kpts 10 Spacing 0.07
REM Total runtime: 16772.8 s
REM Overall efficiency: 78.5833 %
REM
REM
REM
REM compiler GCC version 4.9.2
REM options -cpp -iprefix /lustre/shared/ucl/apps/gcc/4.9.2/bin/../lib/gcc/x86_64-unknown-linux-gnu/4.9.2/ -mtune=corei7 -march=x86-64 -g -Og
REM COMMAND_LINE
REM seed -1883777555 -1614962311 -255913679 -1113913588 40722227 -542426458 -1933511822 1861127143 -1656009480 1511045189 -1761335975 -1073726530
REM
REM S 3|1.8|5|6|7|30:31:32(qc=5)
REM O 2|1.5|12|13|15|20:21(qc=5)
REM Li 1|1.3|8|9|10|10U:20(qc=5)
REM Fe 3|2.2|2.0|1.0|8|9|10|40:41:32(qc=5)
REM Fe d:4.0 
REM
CELL 1.54180    6.21433    7.55101    7.55101  127.89090   94.88318   94.88318
LATT -1
SFAC Li O  S  Fe 
Li     1 -0.2004010000000 -0.1693880000000 -0.2078150000000 1.0   0.01
Li     1  0.2004010000000  0.2078150000000  0.1693880000000 1.0   0.01
O      2  0.0000000000000 -0.0537580000000  0.0537580000000 1.0   0.14
S      3 -0.2159300000000 -0.1456930000000 -0.5140940000000 1.0   0.16
S      3  0.2159300000000  0.5140940000000  0.1456930000000 1.0   0.16
S      3  0.4923930000000 -0.3797770000000 -0.1781520000000 1.0   0.04
S      3 -0.4923930000000  0.1781520000000  0.3797770000000 1.0   0.04
Fe     4 -0.1864230000000 -0.0125360000000 -0.7316290000000 1.0   3.73
Fe     4  0.1864230000000  0.7316290000000  0.0125360000000 1.0   3.73
Fe     4  0.3999270000000 -0.0967800000000 -0.5754570000000 1.0   3.67
Fe     4 -0.3999270000000  0.5754570000000  0.0967800000000 1.0   3.67
END
