TITL LFSO-Li6FeSO3-201028-033352-087745 0.0679 184.455329 -3.67336410E+003 3.92541 4.07019 11 (P222) n - 1
REM
REM Run started: Wed, 28 Oct 2020 06:18:13 +0000 in /scratch/scratch/uccabz1/launch_tmp/launcher_2020-10-28-03-33-50-470864
REM CASTEP 19.11| from code version Version unavailable
REM Functional Perdew Burke Ernzerhof Relativity Koelling-Harmon Dispersion off
REM Cut-off 340.0000 eV Grid scale 1.7500 Gmax 16.5316 1/A FBSC none
REM MP grid 5 4 1 Offset 0.000 0.000 0.000 No. kpts 6 Spacing 0.07
REM Total runtime: 11255 s
REM Overall efficiency: 93.6154 %
REM
REM
REM
REM compiler GCC version 4.9.2
REM options -cpp -iprefix /scratch/UCL/applications/gcc/4.9.2/bin/../lib/gcc/x86_64-unknown-linux-gnu/4.9.2/ -mtune=corei7 -march=x86-64 -g -O2
REM COMMAND_LINE
REM seed -598505328 442978887 -2102266376 -1035908617 385980368 -285433408 577847748 -1915707527 -1750307034 -2094307770 584767101 -646440600
REM
REM S 3|1.8|5|6|7|30:31:32(qc=5)
REM O 2|1.5|12|13|15|20:21(qc=5)
REM Li 1|1.3|8|9|10|10U:20(qc=5)
REM Fe 3|2.2|2.0|1.0|8|9|10|40:41:32(qc=5)
REM Fe d:4.0 
REM
CELL 1.54180    3.23976    3.90726   14.57158   90.00000   90.00000   90.00000
LATT -1
SFAC Li O  S  Fe 
Li     1 -0.0295400000000 -0.2458140000000  0.1585170000000 1.0  -0.04
Li     1  0.0295400000000 -0.2458140000000 -0.1585170000000 1.0  -0.04
Li     1 -0.0295400000000  0.2458140000000 -0.1585170000000 1.0  -0.04
Li     1  0.0295400000000  0.2458140000000  0.1585170000000 1.0  -0.04
Li     1 -0.5000000000000 -0.5000000000000 -0.4123860000000 1.0  -0.01
Li     1  0.5000000000000  0.5000000000000  0.4123860000000 1.0  -0.01
O      2  0.5000000000000  0.0000000000000 -0.1613670000000 1.0   0.05
O      2 -0.5000000000000  0.0000000000000  0.1613670000000 1.0   0.05
O      2  0.0000000000000 -0.5000000000000  0.0000000000000 1.0   0.11
S      3  0.5000000000000  0.0000000000000  0.5000000000000 1.0  -0.00
Fe     4  0.0000000000000  0.0000000000000  0.0000000000000 1.0   3.88
END
