TITL LFSO-Li4Fe3S3O2-201029-083655-6bd642 0.3302 866.208980 -1.03451322E+004 24.0001 24.3671 24 (Pm) n - 1
REM
REM Run started: Sun, 01 Nov 2020 06:38:36 +0000 in /lustre/scratch/uccabz1/launch_tmp/launcher_2020-11-01-05-25-16-955912
REM CASTEP 20.1 from code version af48c487+ pr-geom-scf-spinfix Tue Jun 2 15:39:59 2020 +0100
REM Functional Perdew Burke Ernzerhof Relativity Koelling-Harmon Dispersion off
REM Cut-off 340.0000 eV Grid scale 1.7500 Gmax 16.5316 1/A FBSC none
REM MP grid 4 1 2 Offset 0.000 0.000 0.000 No. kpts 4 Spacing 0.07
REM Total runtime: 199855 s
REM Overall efficiency: 73.2308 %
REM
REM
REM
REM compiler GCC version 4.9.2
REM options -cpp -iprefix /scratch/UCL/applications/gcc/4.9.2/bin/../lib/gcc/x86_64-unknown-linux-gnu/4.9.2/ -mtune=corei7 -march=x86-64 -g -O2
REM COMMAND_LINE
REM seed -1285348980 1586170143 -681138378 802929678 -1940339980 -9225627 -329795888 1495125096 15294266 -1097303799 -1131103544 864345629
REM
REM S 3|1.8|5|6|7|30:31:32(qc=5)
REM O 2|1.5|12|13|15|20:21(qc=5)
REM Li 1|1.3|8|9|10|10U:20(qc=5)
REM Fe 3|2.2|2.0|1.0|8|9|10|40:41:32(qc=5)
REM Fe d:4.0 
REM
CELL 1.54180    3.75284   21.43555   11.13360   90.00000  104.72702   90.00000
LATT -1
SFAC Li O  S  Fe 
Li     1 -0.0265150000000  0.2051120000000  0.1425800000000 1.0  -0.01
Li     1 -0.0265150000000 -0.2051120000000  0.1425800000000 1.0  -0.01
Li     1 -0.3574270000000 -0.2806140000000  0.4461210000000 1.0  -0.01
Li     1 -0.3574270000000  0.2806140000000  0.4461210000000 1.0  -0.01
Li     1 -0.4220460000000 -0.1755890000000  0.2911450000000 1.0  -0.00
Li     1 -0.4220460000000  0.1755890000000  0.2911450000000 1.0  -0.00
Li     1  0.2093200000000  0.3549480000000  0.5648580000000 1.0  -0.04
Li     1  0.2093200000000 -0.3549480000000  0.5648580000000 1.0  -0.04
O      2 -0.2828640000000  0.3397200000000 -0.4244550000000 1.0   0.12
O      2 -0.2828640000000 -0.3397200000000 -0.4244550000000 1.0   0.12
O      2  0.4658630000000  0.2047350000000  0.1302400000000 1.0   0.14
O      2  0.4658630000000 -0.2047350000000  0.1302400000000 1.0   0.14
S      3  0.1466700000000  0.2096810000000  0.4011390000000 1.0   0.07
S      3  0.1466700000000 -0.2096810000000  0.4011390000000 1.0   0.07
S      3 -0.0036510000000  0.1890520000000 -0.2674790000000 1.0   0.21
S      3 -0.0036510000000 -0.1890520000000 -0.2674790000000 1.0   0.21
S      3 -0.1685160000000  0.3253460000000 -0.0578120000000 1.0   0.13
S      3 -0.1685160000000 -0.3253460000000 -0.0578120000000 1.0   0.13
Fe     4 -0.6216580000000 -0.2679540000000  0.0058630000000 1.0   3.80
Fe     4 -0.6216580000000  0.2679540000000  0.0058630000000 1.0   3.80
Fe     4 -0.6025660000000  0.1826160000000 -0.3920780000000 1.0   3.81
Fe     4 -0.6025660000000 -0.1826160000000 -0.3920780000000 1.0   3.81
Fe     4 -0.1799370000000 -0.2993210000000 -0.2651150000000 1.0   3.78
Fe     4 -0.1799370000000  0.2993210000000 -0.2651150000000 1.0   3.78
END
