TITL LFSO-LiFe3S4O-201028-153224-91a29c 0.0945 368.965839 -4.43719341E+003 9.90214 11.0304 9 (Pm) n - 1
REM
REM Run started: Wed, 28 Oct 2020 22:27:17 +0000 in /scratch/scratch/uccabz1/launch_tmp/launcher_2020-10-28-15-32-23-175998
REM CASTEP 19.11| from code version Version unavailable
REM Functional Perdew Burke Ernzerhof Relativity Koelling-Harmon Dispersion off
REM Cut-off 340.0000 eV Grid scale 1.7500 Gmax 16.5316 1/A FBSC none
REM MP grid 5 2 2 Offset 0.000 0.000 0.000 No. kpts 5 Spacing 0.07
REM Total runtime: 26501.5 s
REM Overall efficiency: 88.25 %
REM
REM
REM
REM compiler GCC version 4.9.2
REM options -cpp -iprefix /scratch/UCL/applications/gcc/4.9.2/bin/../lib/gcc/x86_64-unknown-linux-gnu/4.9.2/ -mtune=corei7 -march=x86-64 -g -O2
REM COMMAND_LINE
REM seed -2077296372 1456485358 -1629863496 1794317701 1533703522 348235209 324201650 -218860488 -522382714 865038874 1289315695 1671191157
REM
REM S 3|1.8|5|6|7|30:31:32(qc=5)
REM O 2|1.5|12|13|15|20:21(qc=5)
REM Li 1|1.3|8|9|10|10U:20(qc=5)
REM Fe 3|2.2|2.0|1.0|8|9|10|40:41:32(qc=5)
REM Fe d:4.0 
REM
CELL 1.54180    3.43217    9.29753   12.09817   90.00000   90.00000  107.11435
LATT -1
SFAC Li O  S  Fe 
Li     1 -0.0553110000000  0.0140570000000  0.5000000000000 1.0  -0.02
O      2  0.6412990000000  0.4582820000000 -0.0000000000000 1.0   0.24
S      3  0.0306730000000  0.3180510000000  0.1902030000000 1.0  -0.16
S      3  0.0306730000000  0.3180510000000 -0.1902030000000 1.0  -0.16
S      3 -0.2057290000000  0.0117670000000 -0.3155500000000 1.0  -0.13
S      3 -0.2057290000000  0.0117670000000  0.3155500000000 1.0  -0.13
Fe     4 -0.5936670000000  0.1650990000000  0.2543320000000 1.0   3.34
Fe     4 -0.5936670000000  0.1650990000000 -0.2543320000000 1.0   3.34
Fe     4  0.0904950000000 -0.6097110000000 -0.0000000000000 1.0   3.58
END
