TITL LFSO-Li5FeS2O2-201026-173724-ba74fa 0.3665 316.306488 -6.69149220E+003 10.0000 10.0934 20 (R3) n - 1
REM
REM Run started: Tue, 27 Oct 2020 03:22:12 +0000 in /scratch/scratch/uccabz1/launch_tmp/launcher_2020-10-27-03-15-10-738832
REM CASTEP 19.11| from code version Version unavailable
REM Functional Perdew Burke Ernzerhof Relativity Koelling-Harmon Dispersion off
REM Cut-off 340.0000 eV Grid scale 1.7500 Gmax 16.5316 1/A FBSC none
REM MP grid 3 3 3 Offset 0.000 0.000 0.000 No. kpts 6 Spacing 0.07
REM Total runtime: 33977.4 s
REM Overall efficiency: 96.5455 %
REM
REM
REM
REM compiler GCC version 4.9.2
REM options -cpp -iprefix /scratch/UCL/applications/gcc/4.9.2/bin/../lib/gcc/x86_64-unknown-linux-gnu/4.9.2/ -mtune=corei7 -march=x86-64 -g -O2
REM COMMAND_LINE
REM seed 2087295453 -1043023388 -323214613 2028288675 -174622846 701690107 -501610251 745924447 1443969393 -988197422 -1494460813 -560521179
REM
REM S 3|1.8|5|6|7|30:31:32(qc=5)
REM O 2|1.5|12|13|15|20:21(qc=5)
REM Li 1|1.3|8|9|10|10U:20(qc=5)
REM Fe 3|2.2|2.0|1.0|8|9|10|40:41:32(qc=5)
REM Fe d:4.0 
REM
CELL 1.54180    7.41647    7.41647    7.41647   64.39883   64.39883   64.39883
LATT -1
SFAC Li O  S  Fe 
Li     1 -0.4291920000000 -0.4743560000000  0.1092050000000 1.0  -0.01
Li     1  0.1092050000000 -0.4291920000000 -0.4743560000000 1.0  -0.01
Li     1 -0.4743560000000  0.1092050000000 -0.4291920000000 1.0  -0.01
Li     1  0.4643780000000  0.0707460000000  0.0453170000000 1.0   0.01
Li     1  0.0453170000000  0.4643780000000  0.0707460000000 1.0   0.01
Li     1  0.0707460000000  0.0453170000000  0.4643780000000 1.0   0.01
Li     1 -0.2240320000000 -0.2653450000000  0.2863060000000 1.0   0.02
Li     1  0.2863060000000 -0.2240320000000 -0.2653450000000 1.0   0.02
Li     1 -0.2653450000000  0.2863060000000 -0.2240320000000 1.0   0.02
Li     1 -0.0854290000000 -0.0854290000000 -0.0854290000000 1.0  -0.06
O      2 -0.3366320000000  0.0733350000000  0.7611340000000 1.0   0.27
O      2  0.7611340000000 -0.3366320000000  0.0733350000000 1.0   0.27
O      2  0.0733350000000  0.7611340000000 -0.3366320000000 1.0   0.27
O      2  0.1680090000000  0.1680090000000  0.1680090000000 1.0   0.33
S      3  0.1764830000000 -0.3051700000000  0.1418810000000 1.0   0.23
S      3  0.1418810000000  0.1764830000000 -0.3051700000000 1.0   0.23
S      3 -0.3051700000000  0.1418810000000  0.1764830000000 1.0   0.23
S      3 -0.3482340000000 -0.3482340000000 -0.3482340000000 1.0   0.17
Fe     4  0.0629960000000  0.0629960000000  0.0629960000000 1.0   4.00
Fe     4 -0.2176890000000 -0.2176890000000 -0.2176890000000 1.0   4.03
END
