TITL LFSO-Li2Fe3S2O2-201024-033814-498e7d -1.4157 393.381501 -8.93948178E+003 -7.99987 23.8668 18 (P2) n - 1
REM
REM Run started: Wed, 28 Oct 2020 03:33:52 +0000 in /scratch/scratch/uccabz1/launch_tmp/launcher_2020-10-27-21-37-49-956300
REM CASTEP 19.11| from code version Version unavailable
REM Functional Perdew Burke Ernzerhof Relativity Koelling-Harmon Dispersion off
REM Cut-off 340.0000 eV Grid scale 1.7500 Gmax 16.5316 1/A FBSC none
REM MP grid 2 4 2 Offset 0.000 0.000 0.000 No. kpts 4 Spacing 0.07
REM Total runtime: 93430.7 s
REM Overall efficiency: 85.6364 %
REM
REM
REM
REM compiler GCC version 4.9.2
REM options -cpp -iprefix /lustre/shared/ucl/apps/gcc/4.9.2/bin/../lib/gcc/x86_64-unknown-linux-gnu/4.9.2/ -mtune=corei7 -march=x86-64 -g -Og
REM COMMAND_LINE
REM seed -1296991660 1034027977 -1084314764 -1803027836 76906826 1201375612 -2066724966 -688009766 -1765240868 -834764302 1735947427 1415323193
REM
REM S 3|1.8|5|6|7|30:31:32(qc=5)
REM O 2|1.5|12|13|15|20:21(qc=5)
REM Li 1|1.3|8|9|10|10U:20(qc=5)
REM Fe 3|2.2|2.0|1.0|8|9|10|40:41:32(qc=5)
REM Fe d:4.0 
REM
CELL 1.54180    9.60156    3.76048   12.66566   90.00000  120.66050   90.00000
LATT -1
SFAC Li O  S  Fe 
Li     1  0.3488970000000  0.5752670000000 -0.2483100000000 1.0   0.01
Li     1 -0.3488970000000  0.5752670000000  0.2483100000000 1.0   0.01
Li     1 -0.0857840000000 -0.3790480000000 -0.1257610000000 1.0   0.00
Li     1  0.0857840000000 -0.3790480000000  0.1257610000000 1.0   0.00
O      2 -0.4300550000000  0.0798020000000  0.1993910000000 1.0   0.03
O      2  0.4300550000000  0.0798020000000 -0.1993910000000 1.0   0.03
O      2  0.3896230000000 -0.4629730000000 -0.3889360000000 1.0  -0.18
O      2 -0.3896230000000 -0.4629730000000  0.3889360000000 1.0  -0.18
S      3 -0.1925040000000 -0.3333440000000  0.0184180000000 1.0   0.06
S      3  0.1925040000000 -0.3333440000000 -0.0184180000000 1.0   0.06
S      3 -0.2332070000000  0.0341750000000 -0.3084750000000 1.0  -0.09
S      3  0.2332070000000  0.0341750000000  0.3084750000000 1.0  -0.09
Fe     4  0.5097670000000  0.0270170000000  0.3297430000000 1.0  -3.85
Fe     4 -0.5097670000000  0.0270170000000 -0.3297430000000 1.0  -3.85
Fe     4  0.2775150000000 -0.4696970000000  0.4343160000000 1.0  -3.81
Fe     4 -0.2775150000000 -0.4696970000000 -0.4343160000000 1.0  -3.81
Fe     4 -0.3631190000000  0.1745370000000 -0.0544350000000 1.0   3.82
Fe     4  0.3631190000000  0.1745370000000  0.0544350000000 1.0   3.82
END
