TITL LFSO-Li6FeSO3-201028-023452-e91924 -0.0316 310.652618 -7.35706085E+003 8.00000 8.23898 22 (P21/m) n - 1
REM
REM Run started: Wed, 28 Oct 2020 05:44:29 +0000 in /lustre/scratch/uccabz1/launch_tmp/launcher_2020-10-28-02-34-50-335468
REM CASTEP 20.1 from code version af48c487+ pr-geom-scf-spinfix Tue Jun 2 15:39:59 2020 +0100
REM Functional Perdew Burke Ernzerhof Relativity Koelling-Harmon Dispersion off
REM Cut-off 340.0000 eV Grid scale 1.7500 Gmax 16.5316 1/A FBSC none
REM MP grid 3 3 2 Offset 0.000 0.000 0.000 No. kpts 6 Spacing 0.07
REM Total runtime: 10819.9 s
REM Overall efficiency: 97 %
REM
REM
REM
REM compiler GCC version 4.9.2
REM options -cpp -iprefix /lustre/shared/ucl/apps/gcc/4.9.2/bin/../lib/gcc/x86_64-unknown-linux-gnu/4.9.2/ -mtune=corei7 -march=x86-64 -g -Og
REM COMMAND_LINE
REM seed 2112756012 1891452148 1301560752 582642566 -912735672 -80627954 1324695453 751190468 -1221070579 -1196095634 284466618 -356103186
REM
REM S 3|1.8|5|6|7|30:31:32(qc=5)
REM O 2|1.5|12|13|15|20:21(qc=5)
REM Li 1|1.3|8|9|10|10U:20(qc=5)
REM Fe 3|2.2|2.0|1.0|8|9|10|40:41:32(qc=5)
REM Fe d:4.0 
REM
CELL 1.54180    5.94578    5.70362   10.03515  114.10002   90.00000   90.00000
LATT -1
SFAC Li O  S  Fe 
Li     1 -0.0614020000000 -0.0446850000000 -0.2682050000000 1.0  -0.03
Li     1  0.4385980000000  0.0446850000000  0.2682050000000 1.0  -0.03
Li     1  0.0614020000000  0.0446850000000  0.2682050000000 1.0  -0.03
Li     1 -0.4385980000000 -0.0446850000000 -0.2682050000000 1.0  -0.03
Li     1 -0.0188210000000 -0.7788130000000 -0.4476250000000 1.0  -0.00
Li     1  0.4811790000000  0.7788130000000  0.4476250000000 1.0  -0.00
Li     1  0.0188210000000  0.7788130000000  0.4476250000000 1.0  -0.00
Li     1 -0.4811790000000 -0.7788130000000 -0.4476250000000 1.0  -0.00
Li     1  0.0288880000000  0.4976410000000  0.1093470000000 1.0  -0.02
Li     1  0.5288880000000 -0.4976410000000 -0.1093470000000 1.0  -0.02
Li     1 -0.0288880000000 -0.4976410000000 -0.1093470000000 1.0  -0.02
Li     1 -0.5288880000000  0.4976410000000  0.1093470000000 1.0  -0.02
O      2  0.0030450000000 -0.1872740000000  0.0681020000000 1.0   0.13
O      2  0.5030450000000  0.1872740000000 -0.0681020000000 1.0   0.13
O      2 -0.0030450000000  0.1872740000000 -0.0681020000000 1.0   0.13
O      2 -0.5030450000000 -0.1872740000000  0.0681020000000 1.0   0.13
O      2 -0.2500000000000 -0.0395420000000 -0.4505390000000 1.0   0.00
O      2  0.2500000000000  0.0395420000000  0.4505390000000 1.0   0.00
S      3 -0.2500000000000 -0.4318170000000 -0.2891650000000 1.0   0.00
S      3  0.2500000000000  0.4318170000000  0.2891650000000 1.0   0.00
Fe     4 -0.2500000000000 -0.0043150000000  0.0032380000000 1.0   3.82
Fe     4  0.2500000000000  0.0043150000000 -0.0032380000000 1.0   3.82
END
