TITL LFSO-Li6FeSO3-201028-072222-5a59a0 0.1310 300.062909 -7.35459917E+003 -8.03207 8.20281 22 (R3) n - 1
REM
REM Run started: Wed, 28 Oct 2020 22:37:16 +0000 in /scratch/scratch/uccabz1/launch_tmp/launcher_2020-10-28-07-22-21-278296
REM CASTEP 19.11| from code version Version unavailable
REM Functional Perdew Burke Ernzerhof Relativity Koelling-Harmon Dispersion off
REM Cut-off 340.0000 eV Grid scale 1.7500 Gmax 16.5316 1/A FBSC none
REM MP grid 3 3 3 Offset 0.000 0.000 0.000 No. kpts 6 Spacing 0.07
REM Total runtime: 57697.3 s
REM Overall efficiency: 97.3077 %
REM
REM
REM
REM compiler GCC version 4.9.2
REM options -cpp -iprefix /scratch/UCL/applications/gcc/4.9.2/bin/../lib/gcc/x86_64-unknown-linux-gnu/4.9.2/ -mtune=corei7 -march=x86-64 -g -O2
REM COMMAND_LINE
REM seed 2017719595 1022140271 -1749743319 -1004205391 -42588447 -2143050023 -1409886098 345399095 -687497424 1238213574 -730476300 1145845881
REM
REM S 3|1.8|5|6|7|30:31:32(qc=5)
REM O 2|1.5|12|13|15|20:21(qc=5)
REM Li 1|1.3|8|9|10|10U:20(qc=5)
REM Fe 3|2.2|2.0|1.0|8|9|10|40:41:32(qc=5)
REM Fe d:4.0 
REM
CELL 1.54180    7.24983    7.24983    7.24983   65.21372   65.21372   65.21372
LATT -1
SFAC Li O  S  Fe 
Li     1 -0.1878480000000  0.5621100000000  0.0334350000000 1.0   0.03
Li     1  0.0334350000000 -0.1878480000000  0.5621100000000 1.0   0.03
Li     1  0.5621100000000  0.0334350000000 -0.1878480000000 1.0   0.03
Li     1  0.3132000000000 -0.1732900000000 -0.3134680000000 1.0   0.04
Li     1 -0.3134680000000  0.3132000000000 -0.1732900000000 1.0   0.04
Li     1 -0.1732900000000 -0.3134680000000  0.3132000000000 1.0   0.04
Li     1 -0.1594170000000  0.1839530000000  0.3492530000000 1.0  -0.03
Li     1  0.3492530000000 -0.1594170000000  0.1839530000000 1.0  -0.03
Li     1  0.1839530000000  0.3492530000000 -0.1594170000000 1.0  -0.03
Li     1 -0.5327630000000  0.0639460000000  0.1871310000000 1.0   0.03
Li     1  0.1871310000000 -0.5327630000000  0.0639460000000 1.0   0.03
Li     1  0.0639460000000  0.1871310000000 -0.5327630000000 1.0   0.03
O      2 -0.0779040000000  0.4203780000000  0.2747110000000 1.0  -0.01
O      2  0.2747110000000 -0.0779040000000  0.4203780000000 1.0  -0.01
O      2  0.4203780000000  0.2747110000000 -0.0779040000000 1.0  -0.01
O      2  0.0866770000000 -0.3501120000000 -0.1722320000000 1.0  -0.28
O      2 -0.1722320000000  0.0866770000000 -0.3501120000000 1.0  -0.28
O      2 -0.3501120000000 -0.1722320000000  0.0866770000000 1.0  -0.28
S      3  0.0347670000000  0.0347670000000  0.0347670000000 1.0  -0.15
S      3 -0.3201930000000 -0.3201930000000 -0.3201930000000 1.0  -0.02
Fe     4  0.5316190000000  0.5316190000000  0.5316190000000 1.0  -3.25
Fe     4 -0.0996540000000 -0.0996540000000 -0.0996540000000 1.0  -3.97
END
