TITL LFSO-Li2Fe2S2O-201022-022644-e9e445 0.7512 535.473088 -9.50311969E+003 20.0076 22.5213 21 (Cm) n - 1
REM
REM Run started: Fri, 23 Oct 2020 00:48:31 +0100 in /lustre/scratch/uccabz1/launch_tmp/launcher_2020-10-22-22-38-40-753980
REM CASTEP 20.1 from code version af48c487+ pr-geom-scf-spinfix Tue Jun 2 15:39:59 2020 +0100
REM Functional Perdew Burke Ernzerhof Relativity Koelling-Harmon Dispersion off
REM Cut-off 340.0000 eV Grid scale 1.7500 Gmax 16.5316 1/A FBSC none
REM MP grid 3 3 2 Offset 0.000 0.000 0.000 No. kpts 6 Spacing 0.07
REM Total runtime: 81963.2 s
REM Overall efficiency: 98 %
REM
REM
REM
REM compiler GCC version 4.9.2
REM options -cpp -iprefix /lustre/shared/ucl/apps/gcc/4.9.2/bin/../lib/gcc/x86_64-unknown-linux-gnu/4.9.2/ -mtune=corei7 -march=x86-64 -g -Og
REM COMMAND_LINE
REM seed 2040676870 522543346 -198252574 197593724 -1067120764 -61241612 371018814 -56681428 1859674021 77279670 1582882694 -1279732514
REM
REM S 3|1.8|5|6|7|30:31:32(qc=5)
REM O 2|1.5|12|13|15|20:21(qc=5)
REM Li 1|1.3|8|9|10|10U:20(qc=5)
REM Fe 3|2.2|2.0|1.0|8|9|10|40:41:32(qc=5)
REM Fe d:4.0 
REM
CELL 1.54180    7.96186    7.96186    9.60309   90.73619   90.73619  118.36950
LATT -1
SFAC Li O  S  Fe 
Li     1  0.1532300000000  0.4308360000000 -0.0045930000000 1.0  -0.07
Li     1  0.4308360000000  0.1532300000000 -0.0045930000000 1.0  -0.07
Li     1  0.6019240000000  0.3421050000000  0.3849950000000 1.0  -0.00
Li     1  0.3421050000000  0.6019240000000  0.3849950000000 1.0  -0.00
Li     1 -0.0216180000000 -0.4119410000000  0.2321610000000 1.0  -0.03
Li     1 -0.4119410000000 -0.0216180000000  0.2321610000000 1.0  -0.03
O      2  0.3409730000000 -0.1969600000000 -0.5059420000000 1.0  -0.20
O      2 -0.1969600000000  0.3409730000000 -0.5059420000000 1.0  -0.20
O      2  0.2094960000000  0.2094960000000 -0.5751060000000 1.0   0.08
S      3  0.4168130000000 -0.0072750000000 -0.2139770000000 1.0   0.03
S      3 -0.0072750000000  0.4168130000000 -0.2139770000000 1.0   0.03
S      3  0.3180020000000 -0.3398610000000  0.1594970000000 1.0   0.01
S      3 -0.3398610000000  0.3180020000000  0.1594970000000 1.0   0.01
S      3 -0.0437550000000 -0.3222060000000  0.4655600000000 1.0  -0.21
S      3 -0.3222060000000 -0.0437550000000  0.4655600000000 1.0  -0.21
Fe     4  0.1773760000000 -0.3050690000000 -0.3420550000000 1.0   3.72
Fe     4 -0.3050690000000  0.1773760000000 -0.3420550000000 1.0   3.72
Fe     4 -0.0198460000000  0.2308910000000  0.4469210000000 1.0   3.60
Fe     4  0.2308910000000 -0.0198460000000  0.4469210000000 1.0   3.60
Fe     4 -0.1935540000000  0.3992010000000 -0.0400940000000 1.0   3.13
Fe     4  0.3992010000000 -0.1935540000000 -0.0400940000000 1.0   3.13
END
