TITL LFSO-Li2Fe4S3O2-201026-140058-8a509c 0.1003 211.054711 -5.63556980E+003 15.9998 16.1213 11 (C2) n - 1
REM
REM Run started: Mon, 26 Oct 2020 18:38:30 +0000 in /scratch/scratch/uccabz1/launch_tmp/launcher_2020-10-26-14-00-57-247932
REM CASTEP 19.11| from code version Version unavailable
REM Functional Perdew Burke Ernzerhof Relativity Koelling-Harmon Dispersion off
REM Cut-off 340.0000 eV Grid scale 1.7500 Gmax 16.5316 1/A FBSC none
REM MP grid 3 3 3 Offset 0.000 0.000 0.000 No. kpts 10 Spacing 0.07
REM Total runtime: 19138.8 s
REM Overall efficiency: 76.3846 %
REM
REM
REM
REM compiler GCC version 4.9.2
REM options -cpp -iprefix /scratch/UCL/applications/gcc/4.9.2/bin/../lib/gcc/x86_64-unknown-linux-gnu/4.9.2/ -mtune=corei7 -march=x86-64 -g -O2
REM COMMAND_LINE
REM seed 662679211 -1097966960 -679098062 1136748658 -1011277001 -531743041 -747829127 -756568308 1381625264 -1483764243 -1312994792 1488632926
REM
REM S 3|1.8|5|6|7|30:31:32(qc=5)
REM O 2|1.5|12|13|15|20:21(qc=5)
REM Li 1|1.3|8|9|10|10U:20(qc=5)
REM Fe 3|2.2|2.0|1.0|8|9|10|40:41:32(qc=5)
REM Fe d:4.0 
REM
CELL 1.54180    7.37502    6.87733    6.87733   53.17958   54.16018   54.16018
LATT -1
SFAC Li O  S  Fe 
Li     1  0.8119860000000 -0.5589180000000 -0.1643280000000 1.0  -0.02
Li     1 -0.8119860000000  0.1643280000000  0.5589180000000 1.0  -0.02
O      2 -0.1700700000000 -0.2287500000000 -0.4753580000000 1.0   0.14
O      2  0.1700700000000  0.4753580000000  0.2287500000000 1.0   0.14
S      3 -0.2215440000000  0.0965770000000 -0.1172940000000 1.0   0.09
S      3  0.2215440000000  0.1172940000000 -0.0965770000000 1.0   0.09
S      3  0.5000000000000  0.5469460000000 -0.5469460000000 1.0   0.03
Fe     4  0.1927560000000 -0.2681570000000  0.2798030000000 1.0   3.91
Fe     4 -0.1927560000000 -0.2798030000000  0.2681570000000 1.0   3.91
Fe     4 -0.3308590000000  0.0648000000000 -0.3805690000000 1.0   3.86
Fe     4  0.3308590000000  0.3805690000000 -0.0648000000000 1.0   3.86
END
