TITL LFSO-Li4Fe3S4O-201028-234719-f32fa6 -0.0873 367.295607 -5.03154837E+003 2.71679 11.3670 12 (Pm) n - 1
REM
REM Run started: Thu, 29 Oct 2020 03:41:10 +0000 in /lustre/scratch/uccabz1/launch_tmp/launcher_2020-10-28-23-47-17-277370
REM CASTEP 20.1 from code version af48c487+ pr-geom-scf-spinfix Tue Jun 2 15:39:59 2020 +0100
REM Functional Perdew Burke Ernzerhof Relativity Koelling-Harmon Dispersion off
REM Cut-off 340.0000 eV Grid scale 1.7500 Gmax 16.5316 1/A FBSC none
REM MP grid 5 2 1 Offset 0.000 0.000 0.000 No. kpts 3 Spacing 0.07
REM Total runtime: 14633.5 s
REM Overall efficiency: 76.75 %
REM
REM
REM
REM compiler GCC version 4.9.2
REM options -cpp -iprefix /lustre/shared/ucl/apps/gcc/4.9.2/bin/../lib/gcc/x86_64-unknown-linux-gnu/4.9.2/ -mtune=corei7 -march=x86-64 -g -Og
REM COMMAND_LINE
REM seed 231447287 1143614713 507908853 -99638807 883197942 597147456 789404059 761384279 -135296777 -1495963094 960505654 -260081566
REM
REM S 3|1.8|5|6|7|30:31:32(qc=5)
REM O 2|1.5|12|13|15|20:21(qc=5)
REM Li 1|1.3|8|9|10|10U:20(qc=5)
REM Fe 3|2.2|2.0|1.0|8|9|10|40:41:32(qc=5)
REM Fe d:4.0 
REM
CELL 1.54180    3.07592    7.82133   15.63259   90.00000   77.58859   90.00000
LATT -1
SFAC Li O  S  Fe 
Li     1  0.2536980000000  0.3259220000000 -0.4176700000000 1.0  -0.03
Li     1  0.2536980000000 -0.3259220000000 -0.4176700000000 1.0  -0.03
Li     1 -0.0684200000000  0.1483370000000 -0.1365640000000 1.0  -0.01
Li     1 -0.0684200000000 -0.1483370000000 -0.1365640000000 1.0  -0.01
O      2 -0.5350870000000  0.0000000000000 -0.1737790000000 1.0   0.08
S      3  0.4070920000000 -0.3739880000000 -0.0689050000000 1.0  -0.27
S      3  0.4070920000000  0.3739880000000 -0.0689050000000 1.0  -0.27
S      3 -0.1223900000000  0.2484640000000  0.4770680000000 1.0  -0.04
S      3 -0.1223900000000 -0.2484640000000  0.4770680000000 1.0  -0.04
Fe     4 -0.4142460000000  0.1749960000000 -0.2859570000000 1.0   3.49
Fe     4 -0.4142460000000 -0.1749960000000 -0.2859570000000 1.0   3.49
Fe     4 -0.2227160000000  0.0000000000000  0.5528340000000 1.0  -3.65
END
