TITL LFSO-Li6FeSO3-201028-033347-1d33d0 -0.0078 169.952065 -3.67234910E+003 3.99504 4.22435 11 (F222) n - 1
REM
REM Run started: Wed, 28 Oct 2020 05:13:51 +0000 in /scratch/scratch/uccabz1/launch_tmp/launcher_2020-10-28-03-33-45-467436
REM CASTEP 19.11| from code version Version unavailable
REM Functional Perdew Burke Ernzerhof Relativity Koelling-Harmon Dispersion off
REM Cut-off 340.0000 eV Grid scale 1.7500 Gmax 16.5316 1/A FBSC none
REM MP grid 3 3 4 Offset 0.000 0.000 0.000 No. kpts 12 Spacing 0.07
REM Total runtime: 6850.78 s
REM Overall efficiency: 90.7143 %
REM
REM
REM
REM compiler GCC version 4.9.2
REM options -cpp -iprefix /scratch/UCL/applications/gcc/4.9.2/bin/../lib/gcc/x86_64-unknown-linux-gnu/4.9.2/ -mtune=corei7 -march=x86-64 -g -O2
REM COMMAND_LINE
REM seed -1407602137 -1109219560 321747526 -1993890986 -161829292 1780153038 431354986 -1020502318 -713267857 -353891786 1986281252 1424936839
REM
REM S 3|1.8|5|6|7|30:31:32(qc=5)
REM O 2|1.5|12|13|15|20:21(qc=5)
REM Li 1|1.3|8|9|10|10U:20(qc=5)
REM Fe 3|2.2|2.0|1.0|8|9|10|40:41:32(qc=5)
REM Fe d:4.0 
REM
CELL 1.54180    7.10067    7.10067    7.50546  137.90013  137.90013   55.35068
LATT -1
SFAC Li O  S  Fe 
Li     1  0.2026980000000  0.6389070000000  0.0788280000000 1.0  -0.04
Li     1 -0.6389070000000 -0.2026980000000 -0.0788280000000 1.0  -0.04
Li     1  0.5600790000000  0.1238700000000 -0.0788280000000 1.0  -0.04
Li     1 -0.1238700000000 -0.5600790000000  0.0788280000000 1.0  -0.04
Li     1 -0.2791560000000 -0.2791560000000 -0.5583110000000 1.0  -0.06
Li     1  0.2791560000000  0.2791560000000  0.5583110000000 1.0  -0.06
O      2  0.3427580000000 -0.1572420000000 -0.3144840000000 1.0   0.02
O      2  0.1572420000000 -0.3427580000000  0.3144840000000 1.0   0.02
O      2  0.5000000000000  0.5000000000000  0.0000000000000 1.0   0.01
S      3 -0.0000000000000  0.0000000000000  0.0000000000000 1.0   0.02
Fe     4 -0.2500000000000  0.2500000000000 -0.5000000000000 1.0   4.18
END
