TITL LFSO-Li3FeS2O-201025-082202-c357a3 0.0759 489.771911 -7.51872026E+003 -5.00000 10.2260 21 (Pm) n - 1
REM
REM Run started: Sun, 25 Oct 2020 13:51:36 +0000 in /scratch/scratch/uccabz1/launch_tmp/launcher_2020-10-25-08-22-01-170680
REM CASTEP 19.11| from code version Version unavailable
REM Functional Perdew Burke Ernzerhof Relativity Koelling-Harmon Dispersion off
REM Cut-off 340.0000 eV Grid scale 1.7500 Gmax 16.5316 1/A FBSC none
REM MP grid 4 2 2 Offset 0.000 0.000 0.000 No. kpts 4 Spacing 0.07
REM Total runtime: 22079.7 s
REM Overall efficiency: 74.5833 %
REM
REM
REM
REM compiler GCC version 4.9.2
REM options -cpp -iprefix /scratch/UCL/applications/gcc/4.9.2/bin/../lib/gcc/x86_64-unknown-linux-gnu/4.9.2/ -mtune=corei7 -march=x86-64 -g -O2
REM COMMAND_LINE
REM seed 697875865 1808768935 -1758923748 -484821052 1846125188 -1860196533 -611093084 -2119531309 197161442 1838190601 -1013064117 -1910612918
REM
REM S 3|1.8|5|6|7|30:31:32(qc=5)
REM O 2|1.5|12|13|15|20:21(qc=5)
REM Li 1|1.3|8|9|10|10U:20(qc=5)
REM Fe 3|2.2|2.0|1.0|8|9|10|40:41:32(qc=5)
REM Fe d:4.0 
REM
CELL 1.54180    3.84649   11.04399   11.62216   90.00000   97.24788   90.00000
LATT -1
SFAC Li O  S  Fe 
Li     1  0.0060770000000 -0.2319370000000  0.5699380000000 1.0   0.05
Li     1  0.0060770000000  0.2319370000000  0.5699380000000 1.0   0.05
Li     1  0.4095830000000  0.3060270000000  0.3722900000000 1.0   0.00
Li     1  0.4095830000000 -0.3060270000000  0.3722900000000 1.0   0.00
Li     1 -0.4444950000000 -0.2090330000000 -0.0918520000000 1.0   0.00
Li     1 -0.4444950000000  0.2090330000000 -0.0918520000000 1.0   0.00
Li     1 -0.0353300000000  0.3920190000000 -0.1422620000000 1.0  -0.00
Li     1 -0.0353300000000 -0.3920190000000 -0.1422620000000 1.0  -0.00
Li     1 -0.0005260000000  0.0000000000000 -0.2183990000000 1.0  -0.02
O      2 -0.5220480000000 -0.2741910000000 -0.4725880000000 1.0  -0.07
O      2 -0.5220480000000  0.2741910000000 -0.4725880000000 1.0  -0.07
O      2 -0.3346640000000  0.5000000000000 -0.2235290000000 1.0  -0.04
S      3 -0.1295540000000 -0.3279820000000  0.2397240000000 1.0  -0.12
S      3 -0.1295540000000  0.3279820000000  0.2397240000000 1.0  -0.12
S      3  0.0193610000000 -0.2027110000000 -0.2106930000000 1.0  -0.04
S      3  0.0193610000000  0.2027110000000 -0.2106930000000 1.0  -0.04
S      3 -0.0381560000000  0.3002970000000  0.0668600000000 1.0  -0.08
S      3 -0.0381560000000 -0.3002970000000  0.0668600000000 1.0  -0.08
Fe     4 -0.4411260000000 -0.3803870000000 -0.3478190000000 1.0  -3.46
Fe     4 -0.4411260000000  0.3803870000000 -0.3478190000000 1.0  -3.46
Fe     4 -0.0819620000000 -0.5000000000000  0.1358180000000 1.0   2.47
END
