TITL LFSO-LiFe3S4O-201028-093834-ff61a2 -0.1249 517.150451 -8.87332159E+003 -24.4738 25.1409 18 (P2) n - 1
REM
REM Run started: Thu, 29 Oct 2020 08:51:41 +0000 in /lustre/scratch/uccabz1/launch_tmp/launcher_2020-10-28-19-40-21-738280
REM CASTEP 20.1 from code version af48c487+ pr-geom-scf-spinfix Tue Jun 2 15:39:59 2020 +0100
REM Functional Perdew Burke Ernzerhof Relativity Koelling-Harmon Dispersion off
REM Cut-off 340.0000 eV Grid scale 1.7500 Gmax 16.5316 1/A FBSC none
REM MP grid 5 2 2 Offset 0.000 0.000 0.000 No. kpts 6 Spacing 0.07
REM Total runtime: 73895.5 s
REM Overall efficiency: 80.9286 %
REM
REM
REM
REM compiler GCC version 4.9.2
REM options -cpp -iprefix /scratch/UCL/applications/gcc/4.9.2/bin/../lib/gcc/x86_64-unknown-linux-gnu/4.9.2/ -mtune=corei7 -march=x86-64 -g -O2
REM COMMAND_LINE
REM seed 779307867 1856498634 1446932036 -1244033992 1798249407 1921202740 798070378 713212724 -796038318 348803065 -1665266344 -669142552
REM
REM S 3|1.8|5|6|7|30:31:32(qc=5)
REM O 2|1.5|12|13|15|20:21(qc=5)
REM Li 1|1.3|8|9|10|10U:20(qc=5)
REM Fe 3|2.2|2.0|1.0|8|9|10|40:41:32(qc=5)
REM Fe d:4.0 
REM
CELL 1.54180    3.21204   12.04346   14.71077  114.66543   90.00000   90.00000
LATT -1
SFAC Li O  S  Fe 
Li     1 -0.1262170000000  0.1602050000000  0.2734080000000 1.0  -0.05
Li     1 -0.1262170000000 -0.1602050000000 -0.2734080000000 1.0  -0.05
O      2 -0.0177860000000 -0.1785240000000  0.0463270000000 1.0  -0.49
O      2 -0.0177860000000  0.1785240000000 -0.0463270000000 1.0  -0.49
S      3 -0.1829780000000  0.0324420000000  0.3790800000000 1.0   0.04
S      3 -0.1829780000000 -0.0324420000000 -0.3790800000000 1.0   0.04
S      3  0.4480190000000  0.0966600000000  0.1263500000000 1.0  -0.38
S      3  0.4480190000000 -0.0966600000000 -0.1263500000000 1.0  -0.38
S      3 -0.1289950000000  0.3736610000000  0.3927610000000 1.0  -0.08
S      3 -0.1289950000000 -0.3736610000000 -0.3927610000000 1.0  -0.08
S      3 -0.6643540000000  0.3089290000000 -0.3615700000000 1.0   0.03
S      3 -0.6643540000000 -0.3089290000000  0.3615700000000 1.0   0.03
Fe     4 -0.3029850000000  0.4156130000000 -0.4379760000000 1.0  -3.78
Fe     4 -0.3029850000000 -0.4156130000000  0.4379760000000 1.0  -3.78
Fe     4  0.3124090000000 -0.1240180000000 -0.4983940000000 1.0  -3.61
Fe     4  0.3124090000000  0.1240180000000  0.4983940000000 1.0  -3.61
Fe     4 -0.5190440000000 -0.1197350000000  0.0286440000000 1.0  -3.93
Fe     4 -0.5190440000000  0.1197350000000 -0.0286440000000 1.0  -3.93
END
