TITL LFSO-Li2Fe3S3O-201025-090723-51ff4d 0.0404 187.463880 -4.33570228E+003 12.0000 12.0752 9 (R3) n - 1
REM
REM Run started: Sun, 25 Oct 2020 10:27:33 +0000 in /lustre/scratch/uccabz1/launch_tmp/launcher_2020-10-25-09-07-21-949153
REM CASTEP 20.1 from code version af48c487+ pr-geom-scf-spinfix Tue Jun 2 15:39:59 2020 +0100
REM Functional Perdew Burke Ernzerhof Relativity Koelling-Harmon Dispersion off
REM Cut-off 340.0000 eV Grid scale 1.7500 Gmax 16.5316 1/A FBSC none
REM MP grid 3 3 3 Offset 0.000 0.000 0.000 No. kpts 6 Spacing 0.07
REM Total runtime: 4916.39 s
REM Overall efficiency: 74.7273 %
REM
REM
REM
REM compiler GCC version 4.9.2
REM options -cpp -iprefix /lustre/shared/ucl/apps/gcc/4.9.2/bin/../lib/gcc/x86_64-unknown-linux-gnu/4.9.2/ -mtune=corei7 -march=x86-64 -g -Og
REM COMMAND_LINE
REM seed -1407252175 116871450 1833890879 1068132028 1178673738 1948076994 499416380 1760802449 -604120352 -1785980364 -2103862019 -1150592156
REM
REM S 3|1.8|5|6|7|30:31:32(qc=5)
REM O 2|1.5|12|13|15|20:21(qc=5)
REM Li 1|1.3|8|9|10|10U:20(qc=5)
REM Fe 3|2.2|2.0|1.0|8|9|10|40:41:32(qc=5)
REM Fe d:4.0 
REM
CELL 1.54180    5.72572    5.72572    5.72572   91.68219   91.68219   91.68219
LATT -1
SFAC Li O  S  Fe 
Li     1  0.0730520000000  0.0730520000000  0.0730520000000 1.0  -0.08
Li     1 -0.3266630000000 -0.3266630000000 -0.3266630000000 1.0  -0.02
O      2 -0.5943600000000 -0.5943600000000 -0.5943600000000 1.0   0.19
S      3  0.4416010000000 -0.0779220000000 -0.0370970000000 1.0   0.15
S      3 -0.0370970000000  0.4416010000000 -0.0779220000000 1.0   0.15
S      3 -0.0779220000000 -0.0370970000000  0.4416010000000 1.0   0.15
Fe     4  0.2905760000000 -0.4072490000000  0.1417930000000 1.0   3.82
Fe     4  0.1417930000000  0.2905760000000 -0.4072490000000 1.0   3.82
Fe     4 -0.4072490000000  0.1417930000000  0.2905760000000 1.0   3.82
END
