TITL LFSO-Li2Fe3S2O2-201023-235637-364e5f 0.0023 341.652509 -8.93851254E+003 23.9989 24.2776 18 (R3) n - 1
REM
REM Run started: Sat, 24 Oct 2020 07:11:55 +0100 in /scratch/scratch/uccabz1/launch_tmp/launcher_2020-10-23-22-56-35-217592
REM CASTEP 19.11| from code version Version unavailable
REM Functional Perdew Burke Ernzerhof Relativity Koelling-Harmon Dispersion off
REM Cut-off 340.0000 eV Grid scale 1.7500 Gmax 16.5316 1/A FBSC none
REM MP grid 3 3 2 Offset 0.000 0.000 0.000 No. kpts 7 Spacing 0.07
REM Total runtime: 30683.4 s
REM Overall efficiency: 97.6667 %
REM
REM
REM
REM compiler GCC version 4.9.2
REM options -cpp -iprefix /scratch/UCL/applications/gcc/4.9.2/bin/../lib/gcc/x86_64-unknown-linux-gnu/4.9.2/ -mtune=corei7 -march=x86-64 -g -O2
REM COMMAND_LINE
REM seed -1430725687 -1792642207 1704245146 -1160652199 -1704641642 305785331 926186877 1770866322 -1207713749 -1046847752 925443576 -64271773
REM
REM S 3|1.8|5|6|7|30:31:32(qc=5)
REM O 2|1.5|12|13|15|20:21(qc=5)
REM Li 1|1.3|8|9|10|10U:20(qc=5)
REM Fe 3|2.2|2.0|1.0|8|9|10|40:41:32(qc=5)
REM Fe d:4.0 
REM
CELL 1.54180    6.66559    6.66559    9.67736   69.85538   69.85538   60.00000
LATT -1
SFAC Li O  S  Fe 
Li     1 -0.3062050000000  0.3592810000000 -0.2772770000000 1.0  -0.04
Li     1  0.2242010000000 -0.3062050000000 -0.2772770000000 1.0  -0.04
Li     1  0.3592810000000  0.2242010000000 -0.2772770000000 1.0  -0.04
Li     1 -0.2475390000000 -0.2475390000000 -0.2573840000000 1.0  -0.03
O      2 -0.3381990000000  0.0753340000000 -0.2307500000000 1.0   0.16
O      2  0.4936150000000 -0.3381990000000 -0.2307500000000 1.0   0.16
O      2  0.0753340000000  0.4936150000000 -0.2307500000000 1.0   0.16
O      2 -0.4687090000000 -0.4687090000000  0.4061260000000 1.0   0.23
S      3  0.2854060000000 -0.0297160000000  0.0975970000000 1.0   0.12
S      3 -0.3532860000000  0.2854060000000  0.0975970000000 1.0   0.12
S      3 -0.0297160000000 -0.3532860000000  0.0975970000000 1.0   0.12
S      3  0.1719220000000  0.1719220000000 -0.5157660000000 1.0   0.08
Fe     4  0.0031280000000  0.3580380000000 -0.0237950000000 1.0   3.83
Fe     4 -0.3373720000000  0.0031280000000 -0.0237950000000 1.0   3.83
Fe     4  0.3580380000000 -0.3373720000000 -0.0237950000000 1.0   3.83
Fe     4 -0.5570190000000  0.3418680000000  0.3395990000000 1.0   3.83
Fe     4 -0.1244480000000 -0.5570190000000  0.3395990000000 1.0   3.83
Fe     4  0.3418680000000 -0.1244480000000  0.3395990000000 1.0   3.83
END
