TITL LFSO-Li2Fe2S2O-201022-075939-ae6ff4 0.0330 246.981753 -6.33906263E+003 15.9999 16.2541 14 (R3) n - 1
REM
REM Run started: Thu, 22 Oct 2020 13:18:43 +0100 in /scratch/scratch/uccabz1/launch_tmp/launcher_2020-10-22-06-59-37-879301
REM CASTEP 19.11| from code version Version unavailable
REM Functional Perdew Burke Ernzerhof Relativity Koelling-Harmon Dispersion off
REM Cut-off 340.0000 eV Grid scale 1.7500 Gmax 16.5316 1/A FBSC none
REM MP grid 3 3 3 Offset 0.000 0.000 0.000 No. kpts 6 Spacing 0.07
REM Total runtime: 21604.2 s
REM Overall efficiency: 97.625 %
REM
REM
REM
REM compiler GCC version 4.9.2
REM options -cpp -iprefix /scratch/UCL/applications/gcc/4.9.2/bin/../lib/gcc/x86_64-unknown-linux-gnu/4.9.2/ -mtune=corei7 -march=x86-64 -g -O2
REM COMMAND_LINE
REM seed -1921575322 -1017585999 -273918049 146889260 -857169878 -1477324513 726894495 -1110671496 842805077 -973454730 -274547833 1284685363
REM
REM S 3|1.8|5|6|7|30:31:32(qc=5)
REM O 2|1.5|12|13|15|20:21(qc=5)
REM Li 1|1.3|8|9|10|10U:20(qc=5)
REM Fe 3|2.2|2.0|1.0|8|9|10|40:41:32(qc=5)
REM Fe d:4.0 
REM
CELL 1.54180    7.67004    7.67004    7.67004   50.42932   50.42932   50.42932
LATT -1
SFAC Li O  S  Fe 
Li     1 -0.0120870000000 -0.4976910000000  0.3072420000000 1.0  -0.05
Li     1  0.3072420000000 -0.0120870000000 -0.4976910000000 1.0  -0.05
Li     1 -0.4976910000000  0.3072420000000 -0.0120870000000 1.0  -0.05
Li     1 -0.0022170000000 -0.0022170000000 -0.0022170000000 1.0   0.05
O      2 -0.4828500000000 -0.4828500000000 -0.4828500000000 1.0   0.22
O      2  0.2263990000000  0.2263990000000  0.2263990000000 1.0   0.14
S      3  0.3720210000000  0.0545340000000 -0.2464880000000 1.0   0.20
S      3 -0.2464880000000  0.3720210000000  0.0545340000000 1.0   0.20
S      3  0.0545340000000 -0.2464880000000  0.3720210000000 1.0   0.20
S      3 -0.1231460000000 -0.1231460000000 -0.1231460000000 1.0   0.08
Fe     4  0.5369160000000 -0.2903490000000  0.1617760000000 1.0   3.82
Fe     4  0.1617760000000  0.5369160000000 -0.2903490000000 1.0   3.82
Fe     4 -0.2903490000000  0.1617760000000  0.5369160000000 1.0   3.82
Fe     4  0.1273830000000  0.1273830000000  0.1273830000000 1.0   3.60
END
