TITL LFSO-Li3FeS2O-201024-164530-9233d0 -0.0364 379.009978 -7.51847596E+003 10.9892 12.2738 21 (C2/m) n - 1
REM
REM Run started: Sat, 24 Oct 2020 21:55:08 +0100 in /lustre/scratch/uccabz1/launch_tmp/launcher_2020-10-24-15-45-28-332000
REM CASTEP 20.1 from code version af48c487+ pr-geom-scf-spinfix Tue Jun 2 15:39:59 2020 +0100
REM Functional Perdew Burke Ernzerhof Relativity Koelling-Harmon Dispersion off
REM Cut-off 340.0000 eV Grid scale 1.7500 Gmax 16.5316 1/A FBSC none
REM MP grid 2 2 3 Offset 0.000 0.000 0.000 No. kpts 5 Spacing 0.07
REM Total runtime: 18999.2 s
REM Overall efficiency: 68.1111 %
REM
REM
REM
REM compiler GCC version 4.9.2
REM options -cpp -iprefix /lustre/shared/ucl/apps/gcc/4.9.2/bin/../lib/gcc/x86_64-unknown-linux-gnu/4.9.2/ -mtune=corei7 -march=x86-64 -g -Og
REM COMMAND_LINE
REM seed -1851976483 859220891 793208221 305125023 54476644 1554321098 -1755146282 -1621508362 -1338113398 -1994552579 146241980 49362485
REM
REM S 3|1.8|5|6|7|30:31:32(qc=5)
REM O 2|1.5|12|13|15|20:21(qc=5)
REM Li 1|1.3|8|9|10|10U:20(qc=5)
REM Fe 3|2.2|2.0|1.0|8|9|10|40:41:32(qc=5)
REM Fe d:4.0 
REM
CELL 1.54180    7.84217    7.84217    6.16347   89.42455   89.42455   90.22373
LATT -1
SFAC Li O  S  Fe 
Li     1 -0.3511760000000 -0.1361850000000  0.2170010000000 1.0  -0.03
Li     1  0.1361850000000  0.3511760000000 -0.2170010000000 1.0  -0.03
Li     1  0.3511760000000  0.1361850000000 -0.2170010000000 1.0  -0.03
Li     1 -0.1361850000000 -0.3511760000000  0.2170010000000 1.0  -0.03
Li     1 -0.0982080000000 -0.3117450000000 -0.2063050000000 1.0  -0.02
Li     1  0.3117450000000  0.0982080000000  0.2063050000000 1.0  -0.02
Li     1  0.0982080000000  0.3117450000000  0.2063050000000 1.0  -0.02
Li     1 -0.3117450000000 -0.0982080000000 -0.2063050000000 1.0  -0.02
Li     1 -0.5000000000000 -0.5000000000000 -0.5000000000000 1.0   0.01
O      2 -0.1717910000000 -0.1717910000000  0.0182800000000 1.0   0.05
O      2  0.1717910000000  0.1717910000000 -0.0182800000000 1.0   0.05
O      2  0.0000000000000  0.0000000000000  0.5000000000000 1.0   0.28
S      3  0.2128890000000 -0.3274890000000 -0.1792840000000 1.0  -0.12
S      3  0.3274890000000 -0.2128890000000  0.1792840000000 1.0  -0.12
S      3 -0.2128890000000  0.3274890000000  0.1792840000000 1.0  -0.12
S      3 -0.3274890000000  0.2128890000000 -0.1792840000000 1.0  -0.12
S      3 -0.2978410000000 -0.2978410000000  0.5235980000000 1.0   0.04
S      3  0.2978410000000  0.2978410000000 -0.5235980000000 1.0   0.04
Fe     4 -0.1685550000000  0.1685550000000 -0.5000000000000 1.0   3.66
Fe     4  0.1685550000000 -0.1685550000000  0.5000000000000 1.0   3.66
Fe     4  0.0000000000000  0.0000000000000  0.0000000000000 1.0   3.87
END
