TITL LFSO-Li4Fe3S3O2-201029-000100-9940cf -0.0295 399.526870 -1.03437044E+004 20.0005 20.8216 24 (Pc) n - 1
REM
REM Run started: Thu, 29 Oct 2020 23:19:21 +0000 in /lustre/scratch/uccabz1/launch_tmp/launcher_2020-10-29-09-42-40-481944
REM CASTEP 20.1 from code version af48c487+ pr-geom-scf-spinfix Tue Jun 2 15:39:59 2020 +0100
REM Functional Perdew Burke Ernzerhof Relativity Koelling-Harmon Dispersion off
REM Cut-off 340.0000 eV Grid scale 1.7500 Gmax 16.5316 1/A FBSC none
REM MP grid 5 3 2 Offset 0.000 0.000 0.000 No. kpts 10 Spacing 0.07
REM Total runtime: 89862.8 s
REM Overall efficiency: 72.5 %
REM
REM
REM
REM compiler GCC version 4.9.2
REM options -cpp -iprefix /scratch/UCL/applications/gcc/4.9.2/bin/../lib/gcc/x86_64-unknown-linux-gnu/4.9.2/ -mtune=corei7 -march=x86-64 -g -O2
REM COMMAND_LINE
REM seed 47478331 -868556633 -1232621248 -676733416 832153434 965337941 -1530350749 1755861932 225794956 1663949034 -583633611 1762969190
REM
REM S 3|1.8|5|6|7|30:31:32(qc=5)
REM O 2|1.5|12|13|15|20:21(qc=5)
REM Li 1|1.3|8|9|10|10U:20(qc=5)
REM Fe 3|2.2|2.0|1.0|8|9|10|40:41:32(qc=5)
REM Fe d:4.0 
REM
CELL 1.54180    6.18166    6.58682   18.98999   90.00000   31.11131   90.00000
LATT -1
SFAC Li O  S  Fe 
Li     1 -0.6946310000000 -0.1250860000000  0.3720480000000 1.0  -0.04
Li     1 -0.1946310000000  0.1250860000000  0.3720480000000 1.0  -0.04
Li     1  0.3896610000000 -0.2618460000000  0.5233900000000 1.0  -0.01
Li     1 -0.1103390000000  0.2618460000000  0.5233900000000 1.0  -0.01
Li     1 -0.0337490000000 -0.3155300000000 -0.2126930000000 1.0  -0.11
Li     1  0.4662510000000  0.3155300000000 -0.2126930000000 1.0  -0.11
Li     1  0.3451620000000 -0.1259200000000  0.0431150000000 1.0  -0.03
Li     1 -0.1548380000000  0.1259200000000  0.0431150000000 1.0  -0.03
O      2  0.3310190000000 -0.1662780000000 -0.0591940000000 1.0   0.09
O      2 -0.1689810000000  0.1662780000000 -0.0591940000000 1.0   0.09
O      2  0.3262750000000  0.2795420000000 -0.0798250000000 1.0   0.13
O      2 -0.1737250000000 -0.2795420000000 -0.0798250000000 1.0   0.13
S      3 -0.1862340000000 -0.1159520000000 -0.3899790000000 1.0   0.00
S      3  0.3137660000000  0.1159520000000 -0.3899790000000 1.0   0.00
S      3 -0.0521270000000 -0.2349050000000  0.2696550000000 1.0  -0.02
S      3  0.4478730000000  0.2349050000000  0.2696550000000 1.0  -0.02
S      3  0.7094330000000 -0.3484740000000 -0.4386820000000 1.0   0.01
S      3  0.2094330000000  0.3484740000000 -0.4386820000000 1.0   0.01
Fe     4 -0.2836860000000 -0.5468620000000 -0.0254310000000 1.0   3.23
Fe     4  0.2163140000000  0.5468620000000 -0.0254310000000 1.0   3.23
Fe     4  0.2506750000000 -0.1593920000000 -0.1391910000000 1.0   3.69
Fe     4 -0.2493250000000  0.1593920000000 -0.1391910000000 1.0   3.69
Fe     4  0.2811130000000 -0.4893570000000  0.2439250000000 1.0   3.06
Fe     4 -0.2188870000000  0.4893570000000  0.2439250000000 1.0   3.06
END
