TITL LFSO-Li4Fe3S4O-201028-210834-b3bcf9 -0.0468 217.684492 -5.03704390E+003 10.0001 10.3204 12 (P3) n - 1
REM
REM Run started: Thu, 29 Oct 2020 00:10:11 +0000 in /lustre/scratch/uccabz1/launch_tmp/launcher_2020-10-28-21-08-33-329195
REM CASTEP 20.1 from code version af48c487+ pr-geom-scf-spinfix Tue Jun 2 15:39:59 2020 +0100
REM Functional Perdew Burke Ernzerhof Relativity Koelling-Harmon Dispersion off
REM Cut-off 340.0000 eV Grid scale 1.7500 Gmax 16.5316 1/A FBSC none
REM MP grid 3 3 4 Offset 0.000 0.000 0.000 No. kpts 10 Spacing 0.07
REM Total runtime: 11101.7 s
REM Overall efficiency: 80.1111 %
REM
REM
REM
REM compiler GCC version 4.9.2
REM options -cpp -iprefix /lustre/shared/ucl/apps/gcc/4.9.2/bin/../lib/gcc/x86_64-unknown-linux-gnu/4.9.2/ -mtune=corei7 -march=x86-64 -g -Og
REM COMMAND_LINE
REM seed 1476627342 1460310188 -846318745 237903556 1293224059 1429771553 -1505248085 -1086102175 -388440270 -1030094621 -409527384 170101881
REM
REM S 3|1.8|5|6|7|30:31:32(qc=5)
REM O 2|1.5|12|13|15|20:21(qc=5)
REM Li 1|1.3|8|9|10|10U:20(qc=5)
REM Fe 3|2.2|2.0|1.0|8|9|10|40:41:32(qc=5)
REM Fe d:4.0 
REM
CELL 1.54180    7.62124    7.62124    4.32759   90.00000   90.00000  120.00000
LATT -1
SFAC Li O  S  Fe 
Li     1  0.4001690000000  0.1369490000000  0.0237190000000 1.0  -0.03
Li     1 -0.2632200000000 -0.4001690000000  0.0237190000000 1.0  -0.03
Li     1 -0.1369490000000  0.2632200000000  0.0237190000000 1.0  -0.03
Li     1  0.0000000000000 -0.0000000000000  0.2207230000000 1.0  -0.07
O      2 -0.3333330000000  0.3333330000000 -0.0444050000000 1.0   0.01
S      3  0.1188510000000 -0.2160520000000  0.0609600000000 1.0   0.01
S      3 -0.3349030000000 -0.1188510000000  0.0609600000000 1.0   0.01
S      3  0.2160520000000  0.3349030000000  0.0609600000000 1.0   0.01
S      3 -0.3333330000000  0.3333330000000  0.5612530000000 1.0   0.05
Fe     4 -0.4518930000000 -0.1181840000000 -0.4382790000000 1.0   3.35
Fe     4  0.3337090000000  0.4518930000000 -0.4382790000000 1.0   3.35
Fe     4  0.1181840000000 -0.3337090000000 -0.4382790000000 1.0   3.35
END
