TITL LFSO-Li4Fe3S4O-201029-061201-8f3fc1 0.0469 563.520157 -1.00787470E+004 -24.0000 24.3340 24 (C2) n - 1
REM
REM Run started: Thu, 29 Oct 2020 17:22:15 +0000 in /lustre/scratch/uccabz1/launch_tmp/launcher_2020-10-29-06-12-00-179398
REM CASTEP 20.1 from code version af48c487+ pr-geom-scf-spinfix Tue Jun 2 15:39:59 2020 +0100
REM Functional Perdew Burke Ernzerhof Relativity Koelling-Harmon Dispersion off
REM Cut-off 340.0000 eV Grid scale 1.7500 Gmax 16.5316 1/A FBSC none
REM MP grid 3 2 2 Offset 0.000 0.000 0.000 No. kpts 5 Spacing 0.07
REM Total runtime: 40386.7 s
REM Overall efficiency: 73.5385 %
REM
REM
REM
REM compiler GCC version 4.9.2
REM options -cpp -iprefix /lustre/shared/ucl/apps/gcc/4.9.2/bin/../lib/gcc/x86_64-unknown-linux-gnu/4.9.2/ -mtune=corei7 -march=x86-64 -g -Og
REM COMMAND_LINE
REM seed 1815245243 -1112686000 -996830290 -2078447509 -887926119 -1863670179 1417623839 -1615039809 -457226871 -981415778 989794165 -76939219
REM
REM S 3|1.8|5|6|7|30:31:32(qc=5)
REM O 2|1.5|12|13|15|20:21(qc=5)
REM Li 1|1.3|8|9|10|10U:20(qc=5)
REM Fe 3|2.2|2.0|1.0|8|9|10|40:41:32(qc=5)
REM Fe d:4.0 
REM
CELL 1.54180    8.80106   10.42618   10.42618   75.04025  128.95300  128.95300
LATT -1
SFAC Li O  S  Fe 
Li     1  0.0067520000000 -0.1977510000000 -0.2931690000000 1.0  -0.01
Li     1 -0.0067520000000  0.2931690000000  0.1977510000000 1.0  -0.01
Li     1  0.0449230000000 -0.3829550000000 -0.4256170000000 1.0   0.04
Li     1 -0.0449230000000  0.4256170000000  0.3829550000000 1.0   0.04
Li     1  0.2805470000000 -0.1792950000000  0.0646060000000 1.0   0.01
Li     1 -0.2805470000000 -0.0646060000000  0.1792950000000 1.0   0.01
Li     1  0.2611990000000  0.1185860000000  0.0085440000000 1.0  -0.00
Li     1 -0.2611990000000 -0.0085440000000 -0.1185860000000 1.0  -0.00
O      2  0.2535930000000  0.5999520000000 -0.4247540000000 1.0  -0.26
O      2 -0.2535930000000  0.4247540000000 -0.5999520000000 1.0  -0.26
S      3  0.1588500000000 -0.4103450000000  0.2118270000000 1.0  -0.12
S      3 -0.1588500000000 -0.2118270000000  0.4103450000000 1.0  -0.12
S      3 -0.1096440000000 -0.1901460000000 -0.1271490000000 1.0  -0.13
S      3  0.1096440000000  0.1271490000000  0.1901460000000 1.0  -0.13
S      3 -0.4397480000000  0.0321650000000  0.5786870000000 1.0  -0.11
S      3  0.4397480000000 -0.5786870000000 -0.0321650000000 1.0  -0.11
S      3 -0.3688520000000  0.1205920000000  0.2100100000000 1.0  -0.08
S      3  0.3688520000000 -0.2100100000000 -0.1205920000000 1.0  -0.08
Fe     4 -0.3736450000000  0.5371860000000  0.2388080000000 1.0  -3.83
Fe     4  0.3736450000000 -0.2388080000000 -0.5371860000000 1.0  -3.83
Fe     4  0.4522790000000 -0.3584510000000 -0.1844540000000 1.0  -3.82
Fe     4 -0.4522790000000  0.1844540000000  0.3584510000000 1.0  -3.82
Fe     4  0.1712070000000 -0.0284170000000  0.4010190000000 1.0  -3.69
Fe     4 -0.1712070000000 -0.4010190000000  0.0284170000000 1.0  -3.69
END
