TITL LFSO-Li4Fe3S4O-201029-053910-932ab2 -0.0078 291.997795 -5.03768971E+003 11.9690 12.1925 12 (Pmm2) n - 1
REM
REM Run started: Thu, 29 Oct 2020 11:20:29 +0000 in /scratch/scratch/uccabz1/launch_tmp/launcher_2020-10-29-05-39-08-997270
REM CASTEP 19.11| from code version Version unavailable
REM Functional Perdew Burke Ernzerhof Relativity Koelling-Harmon Dispersion off
REM Cut-off 340.0000 eV Grid scale 1.7500 Gmax 16.5316 1/A FBSC none
REM MP grid 4 2 2 Offset 0.000 0.000 0.000 No. kpts 2 Spacing 0.07
REM Total runtime: 20365.2 s
REM Overall efficiency: 81.9231 %
REM
REM
REM
REM compiler GCC version 4.9.2
REM options -cpp -iprefix /scratch/UCL/applications/gcc/4.9.2/bin/../lib/gcc/x86_64-unknown-linux-gnu/4.9.2/ -mtune=corei7 -march=x86-64 -g -O2
REM COMMAND_LINE
REM seed 815509243 -1362386738 -1681500125 1062939993 -1486313725 -1241436826 -1888526726 -1833580329 360425335 1554685433 614781112 -854107110
REM
REM S 3|1.8|5|6|7|30:31:32(qc=5)
REM O 2|1.5|12|13|15|20:21(qc=5)
REM Li 1|1.3|8|9|10|10U:20(qc=5)
REM Fe 3|2.2|2.0|1.0|8|9|10|40:41:32(qc=5)
REM Fe d:4.0 
REM
CELL 1.54180    4.60917    8.08923    7.83158   90.00000   90.00000   90.00000
LATT -1
SFAC Li O  S  Fe 
Li     1 -0.4269440000000  0.1717720000000  0.1741070000000 1.0  -0.06
Li     1 -0.4269440000000 -0.1717720000000 -0.1741070000000 1.0  -0.06
Li     1 -0.4269440000000  0.1717720000000 -0.1741070000000 1.0  -0.06
Li     1 -0.4269440000000 -0.1717720000000  0.1741070000000 1.0  -0.06
O      2  0.5403680000000  0.0000000000000  0.0000000000000 1.0   0.24
S      3  0.0677860000000 -0.2291160000000  0.2180190000000 1.0   0.20
S      3  0.0677860000000  0.2291160000000 -0.2180190000000 1.0   0.20
S      3  0.0677860000000 -0.2291160000000 -0.2180190000000 1.0   0.20
S      3  0.0677860000000  0.2291160000000  0.2180190000000 1.0   0.20
Fe     4  0.0781850000000 -0.1719640000000  0.5000000000000 1.0   3.53
Fe     4  0.0781850000000  0.1719640000000 -0.5000000000000 1.0   3.53
Fe     4  0.1142760000000  0.0000000000000  0.0000000000000 1.0   4.13
END
