TITL LFSO-Li4Fe3S3O2-201029-024758-ee3c10 -0.0071 227.344819 -5.17140804E+003 12.0000 12.1418 12 (Imm2) n - 1
REM
REM Run started: Thu, 29 Oct 2020 07:46:06 +0000 in /lustre/scratch/uccabz1/launch_tmp/launcher_2020-10-29-02-47-56-585766
REM CASTEP 20.1 from code version af48c487+ pr-geom-scf-spinfix Tue Jun 2 15:39:59 2020 +0100
REM Functional Perdew Burke Ernzerhof Relativity Koelling-Harmon Dispersion off
REM Cut-off 340.0000 eV Grid scale 1.7500 Gmax 16.5316 1/A FBSC none
REM MP grid 3 4 5 Offset 0.000 0.000 0.000 No. kpts 30 Spacing 0.07
REM Total runtime: 18027.7 s
REM Overall efficiency: 90.3636 %
REM
REM
REM
REM compiler GCC version 4.9.2
REM options -cpp -iprefix /lustre/shared/ucl/apps/gcc/4.9.2/bin/../lib/gcc/x86_64-unknown-linux-gnu/4.9.2/ -mtune=corei7 -march=x86-64 -g -Og
REM COMMAND_LINE
REM seed 1742471078 -696975314 -1089607009 379522814 -918459504 1258391086 -1447649388 -1370530137 -1705011128 -1607780113 -1442093127 731698417
REM
REM S 3|1.8|5|6|7|30:31:32(qc=5)
REM O 2|1.5|12|13|15|20:21(qc=5)
REM Li 1|1.3|8|9|10|10U:20(qc=5)
REM Fe 3|2.2|2.0|1.0|8|9|10|40:41:32(qc=5)
REM Fe d:4.0 
REM
CELL 1.54180   11.61730    5.56494    7.33818  112.28274  142.33210   90.00000
LATT -1
SFAC Li O  S  Fe 
Li     1 -0.0777480000000 -0.0798890000000  0.3799330000000 1.0  -0.01
Li     1  0.4576810000000  0.4598220000000  0.3799330000000 1.0  -0.01
Li     1 -0.0777480000000  0.4598220000000  0.3799330000000 1.0  -0.01
Li     1  0.4576810000000 -0.0798890000000  0.3799330000000 1.0  -0.01
O      2  0.5314390000000 -0.3533630000000 -0.7067270000000 1.0   0.18
O      2 -0.2381650000000 -0.3533630000000 -0.7067270000000 1.0   0.18
S      3 -0.3960770000000 -0.0666550000000 -0.1333110000000 1.0   0.09
S      3  0.2627660000000 -0.0666550000000 -0.1333110000000 1.0   0.09
S      3 -0.1150800000000  0.3849200000000  0.7698410000000 1.0   0.12
Fe     4  0.5486620000000  0.2872390000000  0.0973230000000 1.0   3.75
Fe     4  0.5486620000000 -0.1899160000000  0.0973230000000 1.0   3.75
Fe     4 -0.1283230000000 -0.1283230000000 -0.2566450000000 1.0   3.89
END
