TITL LFSO-Li6FeS3O-201027-202406-9c153a -0.0125 464.945228 -6.82081878E+003 7.99996 8.13197 22 (C2/c) n - 1
REM
REM Run started: Wed, 28 Oct 2020 01:57:17 +0000 in /scratch/scratch/uccabz1/launch_tmp/launcher_2020-10-27-20-24-04-829149
REM CASTEP 19.11| from code version Version unavailable
REM Functional Perdew Burke Ernzerhof Relativity Koelling-Harmon Dispersion off
REM Cut-off 340.0000 eV Grid scale 1.7500 Gmax 16.5316 1/A FBSC none
REM MP grid 4 2 2 Offset 0.000 0.000 0.000 No. kpts 6 Spacing 0.07
REM Total runtime: 22031.8 s
REM Overall efficiency: 75.1538 %
REM
REM
REM
REM compiler GCC version 4.9.2
REM options -cpp -iprefix /scratch/UCL/applications/gcc/4.9.2/bin/../lib/gcc/x86_64-unknown-linux-gnu/4.9.2/ -mtune=corei7 -march=x86-64 -g -O2
REM COMMAND_LINE
REM seed 564979497 520084940 1693303040 1086885816 -452919575 1875419237 -54370646 1135106173 -1062581371 -818907669 1748544579 -761385934
REM
REM S 3|1.8|5|6|7|30:31:32(qc=5)
REM O 2|1.5|12|13|15|20:21(qc=5)
REM Li 1|1.3|8|9|10|10U:20(qc=5)
REM Fe 3|2.2|2.0|1.0|8|9|10|40:41:32(qc=5)
REM Fe d:4.0 
REM
CELL 1.54180    6.02895   10.20828   10.20828  110.23838   69.41798   69.41798
LATT -1
SFAC Li O  S  Fe 
Li     1  0.5099800000000 -0.1552810000000  0.1643670000000 1.0  -0.03
Li     1 -0.0099800000000 -0.1643670000000  0.1552810000000 1.0  -0.03
Li     1 -0.5099800000000  0.1552810000000 -0.1643670000000 1.0  -0.03
Li     1  0.0099800000000  0.1643670000000 -0.1552810000000 1.0  -0.03
Li     1 -0.0333720000000  0.5749180000000  0.1932470000000 1.0   0.00
Li     1  0.5333720000000 -0.1932470000000 -0.5749180000000 1.0   0.00
Li     1  0.0333720000000 -0.5749180000000 -0.1932470000000 1.0   0.00
Li     1 -0.5333720000000  0.1932470000000  0.5749180000000 1.0   0.00
Li     1  0.1338940000000  0.3348020000000  0.3693030000000 1.0   0.01
Li     1  0.3661060000000 -0.3693030000000 -0.3348020000000 1.0   0.01
Li     1 -0.1338940000000 -0.3348020000000 -0.3693030000000 1.0   0.01
Li     1 -0.3661060000000  0.3693030000000  0.3348020000000 1.0   0.01
O      2  0.2500000000000  0.2248880000000 -0.2248880000000 1.0   0.01
O      2 -0.2500000000000 -0.2248880000000  0.2248880000000 1.0   0.01
S      3  0.5603760000000  0.2439370000000  0.1022050000000 1.0   0.17
S      3 -0.0603760000000 -0.1022050000000 -0.2439370000000 1.0   0.17
S      3 -0.5603760000000 -0.2439370000000 -0.1022050000000 1.0   0.17
S      3  0.0603760000000  0.1022050000000  0.2439370000000 1.0   0.17
S      3 -0.2500000000000 -0.4270310000000  0.4270310000000 1.0   0.01
S      3  0.2500000000000  0.4270310000000 -0.4270310000000 1.0   0.01
Fe     4 -0.0000000000000  0.0000000000000  0.0000000000000 1.0   3.67
Fe     4  0.5000000000000  0.0000000000000  0.0000000000000 1.0   3.67
END
