TITL LFSO-Li5FeSO3-201026-120237-f94bd6 0.0120 260.208335 -6.95779299E+003 9.99128 10.0668 20 (Pc) n - 1
REM
REM Run started: Mon, 26 Oct 2020 15:25:21 +0000 in /scratch/scratch/uccabz1/launch_tmp/launcher_2020-10-26-12-02-35-298158
REM CASTEP 19.11| from code version Version unavailable
REM Functional Perdew Burke Ernzerhof Relativity Koelling-Harmon Dispersion off
REM Cut-off 340.0000 eV Grid scale 1.7500 Gmax 16.5316 1/A FBSC none
REM MP grid 5 3 2 Offset 0.000 0.000 0.000 No. kpts 10 Spacing 0.07
REM Total runtime: 12234.1 s
REM Overall efficiency: 75.1538 %
REM
REM
REM
REM compiler GCC version 4.9.2
REM options -cpp -iprefix /scratch/UCL/applications/gcc/4.9.2/bin/../lib/gcc/x86_64-unknown-linux-gnu/4.9.2/ -mtune=corei7 -march=x86-64 -g -O2
REM COMMAND_LINE
REM seed 43833296 1206325996 -1181900063 1036840357 1544524057 918852436 2116333975 291614385 1606700536 -1289927117 -826765167 861739308
REM
REM S 3|1.8|5|6|7|30:31:32(qc=5)
REM O 2|1.5|12|13|15|20:21(qc=5)
REM Li 1|1.3|8|9|10|10U:20(qc=5)
REM Fe 3|2.2|2.0|1.0|8|9|10|40:41:32(qc=5)
REM Fe d:4.0 
REM
CELL 1.54180    3.42111    6.63490   11.51474   90.00000   95.40365   90.00000
LATT -1
SFAC Li O  S  Fe 
Li     1  0.1215090000000  0.3207210000000  0.0087610000000 1.0  -0.02
Li     1 -0.3784910000000 -0.3207210000000 -0.4912390000000 1.0  -0.02
Li     1  0.6123540000000 -0.4045520000000  0.0688090000000 1.0  -0.02
Li     1  0.1123540000000  0.4045520000000 -0.4311910000000 1.0  -0.02
Li     1 -0.4360300000000  0.1220240000000 -0.1027220000000 1.0  -0.03
Li     1  0.0639700000000 -0.1220240000000  0.3972780000000 1.0  -0.03
Li     1  0.5212830000000  0.2071760000000  0.4280170000000 1.0   0.03
Li     1  0.0212830000000 -0.2071760000000 -0.0719830000000 1.0   0.03
Li     1  0.0996090000000 -0.4294580000000  0.2897420000000 1.0   0.03
Li     1 -0.4003910000000  0.4294580000000 -0.2102580000000 1.0   0.03
O      2 -0.3864220000000  0.3862070000000 -0.0406240000000 1.0   0.02
O      2  0.1135780000000 -0.3862070000000  0.4593760000000 1.0   0.02
O      2 -0.4625390000000 -0.1185070000000 -0.0052660000000 1.0   0.25
O      2  0.0374610000000  0.1185070000000  0.4947340000000 1.0   0.25
O      2 -0.4010820000000 -0.2993640000000  0.2252350000000 1.0   0.36
O      2  0.0989180000000  0.2993640000000 -0.2747650000000 1.0   0.36
S      3  0.6146120000000 -0.1713620000000 -0.2808860000000 1.0   0.35
S      3  0.1146120000000  0.1713620000000  0.2191140000000 1.0   0.35
Fe     4  0.0849640000000  0.0470410000000 -0.3446540000000 1.0   4.04
Fe     4 -0.4150360000000 -0.0470410000000  0.1553460000000 1.0   4.04
END
