TITL LFSO-Li5FeS2O2-201026-041708-ea2b0d 0.1209 314.573073 -6.69130675E+003 6.00001 7.06733 20 (P21) n - 1
REM
REM Run started: Mon, 26 Oct 2020 06:20:21 +0000 in /scratch/scratch/uccabz1/launch_tmp/launcher_2020-10-26-04-17-07-287593
REM CASTEP 19.11| from code version Version unavailable
REM Functional Perdew Burke Ernzerhof Relativity Koelling-Harmon Dispersion off
REM Cut-off 340.0000 eV Grid scale 1.7500 Gmax 16.5316 1/A FBSC none
REM MP grid 4 2 2 Offset 0.000 0.000 0.000 No. kpts 4 Spacing 0.07
REM Total runtime: 7954.5 s
REM Overall efficiency: 75.5 %
REM
REM
REM
REM compiler GCC version 4.9.2
REM options -cpp -iprefix /scratch/UCL/applications/gcc/4.9.2/bin/../lib/gcc/x86_64-unknown-linux-gnu/4.9.2/ -mtune=corei7 -march=x86-64 -g -O2
REM COMMAND_LINE
REM seed -1372044171 589333637 -1696783117 1006293454 19993775 -85210180 -104538801 530993144 832572355 -1394089637 1214006231 758219999
REM
REM S 3|1.8|5|6|7|30:31:32(qc=5)
REM O 2|1.5|12|13|15|20:21(qc=5)
REM Li 1|1.3|8|9|10|10U:20(qc=5)
REM Fe 3|2.2|2.0|1.0|8|9|10|40:41:32(qc=5)
REM Fe d:4.0 
REM
CELL 1.54180    4.46025    8.76573    9.42381   90.00000   90.00000  121.37450
LATT -1
SFAC Li O  S  Fe 
Li     1  0.4946740000000  0.4103150000000 -0.3219400000000 1.0  -0.03
Li     1 -0.4946740000000 -0.4103150000000  0.1780600000000 1.0  -0.03
Li     1 -0.1099170000000 -0.0332840000000  0.1338600000000 1.0  -0.03
Li     1  0.1099170000000  0.0332840000000 -0.3661400000000 1.0  -0.03
Li     1 -0.4009260000000  0.2035110000000  0.0316580000000 1.0  -0.01
Li     1  0.4009260000000 -0.2035110000000 -0.4683420000000 1.0  -0.01
Li     1  0.4021200000000  0.0944770000000  0.3639810000000 1.0   0.00
Li     1 -0.4021200000000 -0.0944770000000 -0.1360190000000 1.0   0.00
Li     1  0.1922460000000 -0.4517840000000 -0.0546500000000 1.0   0.00
Li     1 -0.1922460000000  0.4517840000000  0.4453500000000 1.0   0.00
O      2 -0.4963400000000 -0.2325950000000  0.0374510000000 1.0  -0.01
O      2  0.4963400000000  0.2325950000000  0.5374510000000 1.0  -0.01
O      2 -0.3927440000000 -0.0236790000000 -0.3344140000000 1.0   0.05
O      2  0.3927440000000  0.0236790000000  0.1655860000000 1.0   0.05
S      3  0.1192540000000 -0.4672430000000 -0.3151080000000 1.0  -0.08
S      3 -0.1192540000000  0.4672430000000  0.1848920000000 1.0  -0.08
S      3  0.1020850000000  0.2230100000000 -0.1191440000000 1.0  -0.08
S      3 -0.1020850000000 -0.2230100000000  0.3808560000000 1.0  -0.08
Fe     4 -0.2055500000000  0.2196440000000 -0.3230130000000 1.0   3.18
Fe     4  0.2055500000000 -0.2196440000000  0.1769870000000 1.0   3.18
END
