TITL LFSO-Li6FeSO3-201028-053752-bf6f0a -0.0022 381.231650 -7.35606232E+003 -8.00580 8.46977 22 (P3) n - 1
REM
REM Run started: Wed, 28 Oct 2020 08:13:13 +0000 in /lustre/scratch/uccabz1/launch_tmp/launcher_2020-10-28-05-37-50-373268
REM CASTEP 20.1 from code version af48c487+ pr-geom-scf-spinfix Tue Jun 2 15:39:59 2020 +0100
REM Functional Perdew Burke Ernzerhof Relativity Koelling-Harmon Dispersion off
REM Cut-off 340.0000 eV Grid scale 1.7500 Gmax 16.5316 1/A FBSC none
REM MP grid 3 3 2 Offset 0.000 0.000 0.000 No. kpts 5 Spacing 0.07
REM Total runtime: 10377.4 s
REM Overall efficiency: 70.1429 %
REM
REM
REM
REM compiler GCC version 4.9.2
REM options -cpp -iprefix /lustre/shared/ucl/apps/gcc/4.9.2/bin/../lib/gcc/x86_64-unknown-linux-gnu/4.9.2/ -mtune=corei7 -march=x86-64 -g -Og
REM COMMAND_LINE
REM seed 4717482 -701610416 -589911387 -919892728 591868457 -1967236453 -980179738 1439709508 411365005 -1548109537 1345815199 -1977685746
REM
REM S 3|1.8|5|6|7|30:31:32(qc=5)
REM O 2|1.5|12|13|15|20:21(qc=5)
REM Li 1|1.3|8|9|10|10U:20(qc=5)
REM Fe 3|2.2|2.0|1.0|8|9|10|40:41:32(qc=5)
REM Fe d:4.0 
REM
CELL 1.54180    6.72515    6.72515    9.73317   90.00000   90.00000  120.00000
LATT -1
SFAC Li O  S  Fe 
Li     1 -0.3654550000000 -0.2227720000000  0.2016170000000 1.0   0.02
Li     1  0.1426830000000  0.3654550000000  0.2016170000000 1.0   0.02
Li     1  0.2227720000000 -0.1426830000000  0.2016170000000 1.0   0.02
Li     1 -0.4481180000000  0.0740360000000  0.0452760000000 1.0  -0.02
Li     1  0.5221540000000  0.4481180000000  0.0452760000000 1.0  -0.02
Li     1 -0.0740360000000 -0.5221540000000  0.0452760000000 1.0  -0.02
Li     1  0.1981490000000  0.4136080000000 -0.1668440000000 1.0   0.07
Li     1  0.2154580000000 -0.1981490000000 -0.1668440000000 1.0   0.07
Li     1 -0.4136080000000 -0.2154580000000 -0.1668440000000 1.0   0.07
Li     1 -0.2030960000000  0.2076950000000 -0.3066920000000 1.0   0.02
Li     1  0.4107910000000  0.2030960000000 -0.3066920000000 1.0   0.02
Li     1 -0.2076950000000 -0.4107910000000 -0.3066920000000 1.0   0.02
O      2  0.0192550000000  0.5139380000000 -0.2745090000000 1.0  -0.05
O      2  0.4946830000000 -0.0192550000000 -0.2745090000000 1.0  -0.05
O      2 -0.5139380000000 -0.4946830000000 -0.2745090000000 1.0  -0.05
O      2 -0.1765320000000 -0.3172900000000  0.0850600000000 1.0  -0.14
O      2 -0.1407580000000  0.1765320000000  0.0850600000000 1.0  -0.14
O      2  0.3172900000000  0.1407580000000  0.0850600000000 1.0  -0.14
S      3  0.3333330000000 -0.3333330000000  0.3719040000000 1.0  -0.02
S      3  0.3333330000000 -0.3333330000000  0.0235750000000 1.0  -0.01
Fe     4 -0.0000000000000  0.0000000000000  0.0407550000000 1.0  -3.73
Fe     4  0.3333330000000 -0.3333330000000 -0.3901890000000 1.0  -3.91
END
