TITL LFSO-Li5FeSO3-201026-062620-83afc9 -0.0263 115.308008 -3.47854581E+003 3.00888 4.13954 10 (Amm2) n - 1
REM
REM Run started: Mon, 26 Oct 2020 07:10:40 +0000 in /lustre/scratch/uccabz1/launch_tmp/launcher_2020-10-26-06-26-18-877611
REM CASTEP 20.1 from code version af48c487+ pr-geom-scf-spinfix Tue Jun 2 15:39:59 2020 +0100
REM Functional Perdew Burke Ernzerhof Relativity Koelling-Harmon Dispersion off
REM Cut-off 340.0000 eV Grid scale 1.7500 Gmax 16.5316 1/A FBSC none
REM MP grid 3 3 4 Offset 0.000 0.000 0.000 No. kpts 18 Spacing 0.07
REM Total runtime: 2923.7 s
REM Overall efficiency: 77.2857 %
REM
REM
REM
REM compiler GCC version 4.9.2
REM options -cpp -iprefix /lustre/shared/ucl/apps/gcc/4.9.2/bin/../lib/gcc/x86_64-unknown-linux-gnu/4.9.2/ -mtune=corei7 -march=x86-64 -g -Og
REM COMMAND_LINE
REM seed -85851130 1588703740 1283760080 -697243523 595950502 -1215599883 1296819935 1974504061 -616550603 -901924766 -1632108356 -1949848930
REM
REM S 3|1.8|5|6|7|30:31:32(qc=5)
REM O 2|1.5|12|13|15|20:21(qc=5)
REM Li 1|1.3|8|9|10|10U:20(qc=5)
REM Fe 3|2.2|2.0|1.0|8|9|10|40:41:32(qc=5)
REM Fe d:4.0 
REM
CELL 1.54180    4.65682    6.68722    4.98900  132.08225   89.99243   90.00000
LATT -1
SFAC Li O  S  Fe 
Li     1  0.2421690000000 -0.1872930000000 -0.4106070000000 1.0  -0.01
Li     1 -0.2421690000000  0.2233140000000  0.4106070000000 1.0  -0.01
Li     1 -0.2421660000000 -0.1873240000000  0.5894720000000 1.0  -0.01
Li     1  0.2421660000000  0.2232030000000 -0.5894720000000 1.0  -0.01
Li     1 -0.5000000000000 -0.2605280000000 -0.0000000000000 1.0  -0.02
O      2  0.5000030000000  0.0266690000000  0.5032780000000 1.0   0.05
O      2 -0.5000030000000 -0.4766090000000 -0.5032780000000 1.0   0.05
O      2  0.0000000000000  0.0184500000000 -0.0000000000000 1.0  -0.28
S      3  0.0000000000000  0.4863860000000 -0.0000000000000 1.0  -0.27
Fe     4 -0.5000000000000  0.3143510000000 -0.0000000000000 1.0   3.51
END
