TITL LFSO-Li2Fe2S2O-201022-080416-0e0666 -0.3655 694.618513 -9.50479645E+003 23.4542 24.2116 21 (P2/m) n - 1
REM
REM Run started: Thu, 22 Oct 2020 11:04:09 +0100 in /scratch/scratch/uccabz1/launch_tmp/launcher_2020-10-22-07-04-14-534408
REM CASTEP 19.11| from code version Version unavailable
REM Functional Perdew Burke Ernzerhof Relativity Koelling-Harmon Dispersion off
REM Cut-off 340.0000 eV Grid scale 1.7500 Gmax 16.5316 1/A FBSC none
REM MP grid 2 3 2 Offset 0.000 0.000 0.000 No. kpts 3 Spacing 0.07
REM Total runtime: 13457.9 s
REM Overall efficiency: 67.9167 %
REM
REM
REM
REM compiler GCC version 4.9.2
REM options -cpp -iprefix /scratch/UCL/applications/gcc/4.9.2/bin/../lib/gcc/x86_64-unknown-linux-gnu/4.9.2/ -mtune=corei7 -march=x86-64 -g -O2
REM COMMAND_LINE
REM seed -1800148499 866159733 422429299 -662227720 -491112435 -397831898 1135959892 2108156465 2080822875 1878371596 1646833755 311532050
REM
REM S 3|1.8|5|6|7|30:31:32(qc=5)
REM O 2|1.5|12|13|15|20:21(qc=5)
REM Li 1|1.3|8|9|10|10U:20(qc=5)
REM Fe 3|2.2|2.0|1.0|8|9|10|40:41:32(qc=5)
REM Fe d:4.0 
REM
CELL 1.54180    9.00813    5.95506   13.03540   83.38789   90.00000   90.00000
LATT -1
SFAC Li O  S  Fe 
Li     1  0.2285300000000  0.5767450000000 -0.3139140000000 1.0  -0.03
Li     1  0.2285300000000 -0.5767450000000  0.3139140000000 1.0  -0.03
Li     1 -0.2285300000000 -0.5767450000000  0.3139140000000 1.0  -0.03
Li     1 -0.2285300000000  0.5767450000000 -0.3139140000000 1.0  -0.03
Li     1 -0.5000000000000 -0.3506880000000 -0.4661550000000 1.0  -0.05
Li     1  0.5000000000000  0.3506880000000  0.4661550000000 1.0  -0.05
O      2  0.3189130000000 -0.5000000000000  0.5000000000000 1.0   0.11
O      2 -0.3189130000000  0.5000000000000 -0.5000000000000 1.0   0.11
O      2  0.0000000000000  0.0000000000000 -0.5000000000000 1.0   0.21
S      3  0.2603390000000 -0.0389260000000 -0.3255430000000 1.0   0.04
S      3  0.2603390000000  0.0389260000000  0.3255430000000 1.0   0.04
S      3 -0.2603390000000  0.0389260000000  0.3255430000000 1.0   0.04
S      3 -0.2603390000000 -0.0389260000000 -0.3255430000000 1.0   0.04
S      3  0.0000000000000  0.4656070000000 -0.3604640000000 1.0   0.06
S      3  0.0000000000000 -0.4656070000000  0.3604640000000 1.0   0.06
Fe     4 -0.1601800000000 -0.2383230000000  0.4665590000000 1.0   3.81
Fe     4 -0.1601800000000  0.2383230000000 -0.4665590000000 1.0   3.81
Fe     4  0.1601800000000  0.2383230000000 -0.4665590000000 1.0   3.81
Fe     4  0.1601800000000 -0.2383230000000  0.4665590000000 1.0   3.81
Fe     4  0.5000000000000 -0.0051230000000 -0.3469640000000 1.0   3.87
Fe     4 -0.5000000000000  0.0051230000000  0.3469640000000 1.0   3.87
END
