TITL LFSO-Li4Fe2S3O-201026-060518-3a74fd 0.0311 392.123213 -7.74715565E+003 15.9996 16.3000 20 (P2) n - 1
REM
REM Run started: Mon, 26 Oct 2020 09:23:16 +0000 in /lustre/scratch/uccabz1/launch_tmp/launcher_2020-10-26-06-05-16-786862
REM CASTEP 20.1 from code version af48c487+ pr-geom-scf-spinfix Tue Jun 2 15:39:59 2020 +0100
REM Functional Perdew Burke Ernzerhof Relativity Koelling-Harmon Dispersion off
REM Cut-off 340.0000 eV Grid scale 1.7500 Gmax 16.5316 1/A FBSC none
REM MP grid 4 2 2 Offset 0.000 0.000 0.000 No. kpts 4 Spacing 0.07
REM Total runtime: 12803.7 s
REM Overall efficiency: 75.8333 %
REM
REM
REM
REM compiler GCC version 4.9.2
REM options -cpp -iprefix /lustre/shared/ucl/apps/gcc/4.9.2/bin/../lib/gcc/x86_64-unknown-linux-gnu/4.9.2/ -mtune=corei7 -march=x86-64 -g -Og
REM COMMAND_LINE
REM seed 671278002 1194957829 736253496 -2597415 -1243750577 2047313155 1450773824 862959139 957472278 -1101058761 -557009402 1616635046
REM
REM S 3|1.8|5|6|7|30:31:32(qc=5)
REM O 2|1.5|12|13|15|20:21(qc=5)
REM Li 1|1.3|8|9|10|10U:20(qc=5)
REM Fe 3|2.2|2.0|1.0|8|9|10|40:41:32(qc=5)
REM Fe d:4.0 
REM
CELL 1.54180    3.89996    9.90812   12.15175  123.37496   90.00000   90.00000
LATT -1
SFAC Li O  S  Fe 
Li     1  0.0966480000000  0.0464770000000  0.2020020000000 1.0  -0.02
Li     1  0.0966480000000 -0.0464770000000 -0.2020020000000 1.0  -0.02
Li     1  0.0840350000000  0.2941440000000 -0.0328070000000 1.0   0.03
Li     1  0.0840350000000 -0.2941440000000  0.0328070000000 1.0   0.03
Li     1  0.0978200000000 -0.2152390000000  0.3946730000000 1.0  -0.07
Li     1  0.0978200000000  0.2152390000000 -0.3946730000000 1.0  -0.07
Li     1 -0.4003310000000 -0.3313240000000  0.2261300000000 1.0   0.01
Li     1 -0.4003310000000  0.3313240000000 -0.2261300000000 1.0   0.01
O      2  0.6061940000000  0.1589110000000 -0.4076380000000 1.0   0.20
O      2  0.6061940000000 -0.1589110000000  0.4076380000000 1.0   0.20
S      3  0.1712070000000  0.2799170000000  0.4207920000000 1.0   0.12
S      3  0.1712070000000 -0.2799170000000 -0.4207920000000 1.0   0.12
S      3 -0.4029150000000  0.1198860000000 -0.1550280000000 1.0   0.04
S      3 -0.4029150000000 -0.1198860000000  0.1550280000000 1.0   0.04
S      3  0.1037600000000 -0.4912740000000  0.1903230000000 1.0   0.06
S      3  0.1037600000000  0.4912740000000 -0.1903230000000 1.0   0.06
Fe     4 -0.3988590000000  0.0379170000000  0.3963750000000 1.0   3.82
Fe     4 -0.3988590000000 -0.0379170000000 -0.3963750000000 1.0   3.82
Fe     4  0.1851660000000  0.5294220000000 -0.3599790000000 1.0   3.82
Fe     4  0.1851660000000 -0.5294220000000  0.3599790000000 1.0   3.82
END
