TITL LFSO-Li5FeS2O2-201026-065743-7b7599 -0.0137 474.460043 -6.68452178E+003 10.0000 10.6461 20 (R3m) n - 1
REM
REM Run started: Mon, 26 Oct 2020 13:05:57 +0000 in /scratch/scratch/uccabz1/launch_tmp/launcher_2020-10-26-06-57-41-871183
REM CASTEP 19.11| from code version Version unavailable
REM Functional Perdew Burke Ernzerhof Relativity Koelling-Harmon Dispersion off
REM Cut-off 340.0000 eV Grid scale 1.7500 Gmax 16.5316 1/A FBSC none
REM MP grid 3 3 2 Offset 0.000 0.000 0.000 No. kpts 6 Spacing 0.07
REM Total runtime: 23755.8 s
REM Overall efficiency: 75.0833 %
REM
REM
REM
REM compiler GCC version 4.9.2
REM options -cpp -iprefix /scratch/UCL/applications/gcc/4.9.2/bin/../lib/gcc/x86_64-unknown-linux-gnu/4.9.2/ -mtune=corei7 -march=x86-64 -g -O2
REM COMMAND_LINE
REM seed -559457196 869940165 1625327069 333296872 -1298221617 -101328725 -1574729993 -1053691635 -1171531071 -496825588 2142892578 -1253026201
REM
REM S 3|1.8|5|6|7|30:31:32(qc=5)
REM O 2|1.5|12|13|15|20:21(qc=5)
REM Li 1|1.3|8|9|10|10U:20(qc=5)
REM Fe 3|2.2|2.0|1.0|8|9|10|40:41:32(qc=5)
REM Fe d:4.0 
REM
CELL 1.54180    7.75991    7.75991   10.14147   67.50621   67.50621   60.00000
LATT -1
SFAC Li O  S  Fe 
Li     1 -0.4255440000000  0.1280230000000 -0.2769350000000 1.0  -0.07
Li     1 -0.4255440000000 -0.4255440000000 -0.2769350000000 1.0  -0.07
Li     1  0.1280230000000 -0.4255440000000 -0.2769350000000 1.0  -0.07
Li     1 -0.2418990000000 -0.2418990000000  0.2207260000000 1.0  -0.00
Li     1  0.2630730000000 -0.2418990000000  0.2207260000000 1.0  -0.00
Li     1 -0.2418990000000  0.2630730000000  0.2207260000000 1.0  -0.00
Li     1 -0.3827390000000  0.2162390000000 -0.0497380000000 1.0  -0.04
Li     1  0.2162390000000 -0.3827390000000 -0.0497380000000 1.0  -0.04
Li     1  0.2162390000000  0.2162390000000 -0.0497380000000 1.0  -0.04
Li     1 -0.3120050000000 -0.3120050000000 -0.0639850000000 1.0   0.03
O      2  0.2956050000000 -0.3464690000000 -0.2447400000000 1.0   0.73
O      2  0.2956050000000  0.2956050000000 -0.2447400000000 1.0   0.73
O      2 -0.3464690000000  0.2956050000000 -0.2447400000000 1.0   0.73
O      2 -0.2432480000000 -0.2432480000000 -0.2702570000000 1.0   0.20
S      3  0.4639610000000  0.4639610000000  0.1118610000000 1.0   0.08
S      3 -0.0397830000000  0.4639610000000  0.1118610000000 1.0   0.08
S      3  0.4639610000000 -0.0397830000000  0.1118610000000 1.0   0.08
S      3 -0.0976520000000 -0.0976520000000  0.2929550000000 1.0   0.06
Fe     4  0.2732050000000  0.2732050000000  0.1803860000000 1.0   3.82
Fe     4 -0.1775320000000 -0.1775320000000  0.5325950000000 1.0   3.81
END
