TITL LFSO-Li6FeSO3-201028-065230-87cb3e -0.0030 157.271400 -3.67898761E+003 4.00000 4.12196 11 (I222) n - 1
REM
REM Run started: Wed, 28 Oct 2020 07:06:54 +0000 in /scratch/scratch/uccabz1/launch_tmp/launcher_2020-10-28-06-52-28-676124
REM CASTEP 19.11| from code version Version unavailable
REM Functional Perdew Burke Ernzerhof Relativity Koelling-Harmon Dispersion off
REM Cut-off 340.0000 eV Grid scale 1.7500 Gmax 16.5316 1/A FBSC none
REM MP grid 4 3 3 Offset 0.000 0.000 0.000 No. kpts 12 Spacing 0.07
REM Total runtime: 1029.8 s
REM Overall efficiency: 73.1667 %
REM
REM
REM
REM compiler GCC version 4.9.2
REM options -cpp -iprefix /scratch/UCL/applications/gcc/4.9.2/bin/../lib/gcc/x86_64-unknown-linux-gnu/4.9.2/ -mtune=corei7 -march=x86-64 -g -O2
REM COMMAND_LINE
REM seed -1479588661 -2048490377 951542177 593881056 -491822303 2116860280 -494582941 -1767371126 1264228390 -1402547800 239467486 -536062929
REM
REM S 3|1.8|5|6|7|30:31:32(qc=5)
REM O 2|1.5|12|13|15|20:21(qc=5)
REM Li 1|1.3|8|9|10|10U:20(qc=5)
REM Fe 3|2.2|2.0|1.0|8|9|10|40:41:32(qc=5)
REM Fe d:4.0 
REM
CELL 1.54180    6.21926    5.91821    5.91821   70.79834   58.30248   58.30248
LATT -1
SFAC Li O  S  Fe 
Li     1 -0.1990150000000  0.7067550000000 -0.6904530000000 1.0  -0.02
Li     1 -0.1827140000000 -0.7067550000000  0.6904530000000 1.0  -0.02
Li     1  0.1990150000000 -0.3095470000000  0.2932450000000 1.0  -0.02
Li     1  0.1827140000000  0.3095470000000 -0.2932450000000 1.0  -0.02
Li     1  0.3314330000000 -0.3314330000000 -0.3314330000000 1.0  -0.02
Li     1 -0.3314330000000  0.3314330000000  0.3314330000000 1.0  -0.02
O      2 -0.5000000000000  1.2801370000000 -0.2801370000000 1.0   0.06
O      2  0.5000000000000 -1.2801370000000  0.2801370000000 1.0   0.06
O      2  0.0000000000000 -0.5000000000000  0.5000000000000 1.0   0.04
S      3  0.0000000000000  0.0000000000000  0.0000000000000 1.0   0.10
Fe     4  0.5000000000000  0.0000000000000  0.0000000000000 1.0   3.88
END
