TITL LFSO-Li6FeSO3-201028-054449-2945d6 -0.0420 312.835967 -7.35834628E+003 8.00000 8.24581 22 (P2) n - 1
REM
REM Run started: Wed, 28 Oct 2020 10:06:01 +0000 in /scratch/scratch/uccabz1/launch_tmp/launcher_2020-10-28-05-44-47-891021
REM CASTEP 19.11| from code version Version unavailable
REM Functional Perdew Burke Ernzerhof Relativity Koelling-Harmon Dispersion off
REM Cut-off 340.0000 eV Grid scale 1.7500 Gmax 16.5316 1/A FBSC none
REM MP grid 3 3 2 Offset 0.000 0.000 0.000 No. kpts 6 Spacing 0.07
REM Total runtime: 17033.1 s
REM Overall efficiency: 96.4545 %
REM
REM
REM
REM compiler GCC version 4.9.2
REM options -cpp -iprefix /scratch/UCL/applications/gcc/4.9.2/bin/../lib/gcc/x86_64-unknown-linux-gnu/4.9.2/ -mtune=corei7 -march=x86-64 -g -O2
REM COMMAND_LINE
REM seed -2080924266 657317475 588883534 1164986486 -903097767 -1470710462 1579370496 826033446 -546688287 149941642 -1361793131 -2075627485
REM
REM S 3|1.8|5|6|7|30:31:32(qc=5)
REM O 2|1.5|12|13|15|20:21(qc=5)
REM Li 1|1.3|8|9|10|10U:20(qc=5)
REM Fe 3|2.2|2.0|1.0|8|9|10|40:41:32(qc=5)
REM Fe d:4.0 
REM
CELL 1.54180    6.06515    6.85624    9.47152   52.58652   90.00000   90.00000
LATT -1
SFAC Li O  S  Fe 
Li     1  0.1422000000000 -0.3828920000000 -0.2259460000000 1.0  -0.01
Li     1  0.1422000000000  0.3828920000000  0.2259460000000 1.0  -0.01
Li     1  0.3926540000000  0.0657080000000 -0.4117450000000 1.0  -0.02
Li     1  0.3926540000000 -0.0657080000000  0.4117450000000 1.0  -0.02
Li     1 -0.1460510000000  0.2285170000000 -0.4254880000000 1.0  -0.04
Li     1 -0.1460510000000 -0.2285170000000  0.4254880000000 1.0  -0.04
Li     1  0.2969780000000  0.1451660000000 -0.1996570000000 1.0   0.01
Li     1  0.2969780000000 -0.1451660000000  0.1996570000000 1.0   0.01
Li     1 -0.1740140000000 -0.2440570000000  0.1575180000000 1.0  -0.02
Li     1 -0.1740140000000  0.2440570000000 -0.1575180000000 1.0  -0.02
Li     1 -0.4514110000000 -0.4541230000000 -0.4000790000000 1.0   0.01
Li     1 -0.4514110000000  0.4541230000000  0.4000790000000 1.0   0.01
O      2 -0.1188630000000  0.4203540000000  0.3247640000000 1.0   0.14
O      2 -0.1188630000000 -0.4203540000000 -0.3247640000000 1.0   0.14
O      2 -0.4594570000000 -0.2281260000000  0.3334700000000 1.0   0.02
O      2 -0.4594570000000  0.2281260000000 -0.3334700000000 1.0   0.02
O      2  0.4236650000000  0.2652440000000  0.3259500000000 1.0   0.10
O      2  0.4236650000000 -0.2652440000000 -0.3259500000000 1.0   0.10
S      3 -0.0063340000000  0.1208350000000  0.1364910000000 1.0   0.01
S      3 -0.0063340000000 -0.1208350000000 -0.1364910000000 1.0   0.01
Fe     4 -0.2902250000000 -0.2669290000000 -0.2398520000000 1.0   3.81
Fe     4 -0.2902250000000  0.2669290000000  0.2398520000000 1.0   3.81
END
