TITL LFSO-Li5FeS2O2-201025-231212-1da2eb 0.1377 158.202215 -3.34173591E+003 2.99926 3.24997 10 (R3) n - 1
REM
REM Run started: Mon, 26 Oct 2020 01:29:24 +0000 in /lustre/scratch/uccabz1/launch_tmp/launcher_2020-10-25-23-12-10-393994
REM CASTEP 20.1 from code version af48c487+ pr-geom-scf-spinfix Tue Jun 2 15:39:59 2020 +0100
REM Functional Perdew Burke Ernzerhof Relativity Koelling-Harmon Dispersion off
REM Cut-off 340.0000 eV Grid scale 1.7500 Gmax 16.5316 1/A FBSC none
REM MP grid 4 4 2 Offset 0.000 0.000 0.000 No. kpts 16 Spacing 0.07
REM Total runtime: 8862.75 s
REM Overall efficiency: 85.4167 %
REM
REM
REM
REM compiler GCC version 4.9.2
REM options -cpp -iprefix /lustre/shared/ucl/apps/gcc/4.9.2/bin/../lib/gcc/x86_64-unknown-linux-gnu/4.9.2/ -mtune=corei7 -march=x86-64 -g -Og
REM COMMAND_LINE
REM seed -1054894550 393364793 1426870603 1766965937 1133731163 -103227757 -1796682434 1270763848 -2058604251 -2116304840 1300638565 837151496
REM
REM S 3|1.8|5|6|7|30:31:32(qc=5)
REM O 2|1.5|12|13|15|20:21(qc=5)
REM Li 1|1.3|8|9|10|10U:20(qc=5)
REM Fe 3|2.2|2.0|1.0|8|9|10|40:41:32(qc=5)
REM Fe d:4.0 
REM
CELL 1.54180    4.49900    4.49900    9.39140   76.14133   76.14133   60.00000
LATT -1
SFAC Li O  S  Fe 
Li     1  0.3824820000000  0.0053670000000 -0.1305830000000 1.0  -0.01
Li     1 -0.2572650000000  0.3824820000000 -0.1305830000000 1.0  -0.01
Li     1  0.0053670000000 -0.2572650000000 -0.1305830000000 1.0  -0.01
Li     1  0.6017940000000  0.6017940000000 -0.8053830000000 1.0  -0.07
Li     1  0.1459190000000  0.1459190000000  0.5622430000000 1.0  -0.02
O      2  0.0789350000000  0.0789350000000 -0.2368060000000 1.0   0.02
O      2 -0.3304440000000 -0.3304440000000 -0.0086680000000 1.0   0.02
S      3 -0.0757340000000 -0.0757340000000  0.2272010000000 1.0  -0.05
S      3 -0.1546810000000 -0.1546810000000 -0.5359580000000 1.0  -0.00
Fe     4  0.2867150000000  0.2867150000000  0.1398550000000 1.0   3.14
END
