TITL LFSO-Li2Fe2S2O-201022-044123-a198b0 0.0017 123.801521 -3.16986160E+003 -7.99935 8.05570 7 (C2/m) n - 1
REM
REM Run started: Thu, 22 Oct 2020 06:06:57 +0100 in /scratch/scratch/uccabz1/launch_tmp/launcher_2020-10-22-03-41-21-422746
REM CASTEP 19.11| from code version Version unavailable
REM Functional Perdew Burke Ernzerhof Relativity Koelling-Harmon Dispersion off
REM Cut-off 340.0000 eV Grid scale 1.7500 Gmax 16.5316 1/A FBSC none
REM MP grid 6 3 3 Offset 0.000 0.000 0.000 No. kpts 18 Spacing 0.07
REM Total runtime: 5272.11 s
REM Overall efficiency: 94.5 %
REM
REM
REM
REM compiler GCC version 4.9.2
REM options -cpp -iprefix /scratch/UCL/applications/gcc/4.9.2/bin/../lib/gcc/x86_64-unknown-linux-gnu/4.9.2/ -mtune=corei7 -march=x86-64 -g -O2
REM COMMAND_LINE
REM seed 341036482 -869173374 -1775896011 -11113152 -784148425 -501612560 -1045328052 123700059 598338400 944866123 1734460491 -1725452290
REM
REM S 3|1.8|5|6|7|30:31:32(qc=5)
REM O 2|1.5|12|13|15|20:21(qc=5)
REM Li 1|1.3|8|9|10|10U:20(qc=5)
REM Fe 3|2.2|2.0|1.0|8|9|10|40:41:32(qc=5)
REM Fe d:4.0 
REM
CELL 1.54180    3.54877    7.02735    7.02735   62.03976  120.96051  120.96051
LATT -1
SFAC Li O  S  Fe 
Li     1  0.0000000000000 -0.3239240000000  0.3239240000000 1.0   0.07
Li     1  0.0000000000000  0.3239240000000 -0.3239240000000 1.0   0.07
O      2  0.5000000000000 -0.5000000000000 -0.5000000000000 1.0  -0.18
S      3 -0.5000000000000  0.0000000000000  0.5000000000000 1.0  -0.07
S      3 -0.5000000000000  0.5000000000000  0.0000000000000 1.0  -0.07
Fe     4  0.0817820000000  0.2918350000000  0.2918350000000 1.0  -3.91
Fe     4 -0.0817820000000 -0.2918350000000 -0.2918350000000 1.0  -3.91
END
