TITL LFSO-Li4Fe2S3O-201027-000928-acdd45 -0.0485 421.386609 -7.74419727E+003 8.00000 15.7248 20 (P3) n - 1
REM
REM Run started: Tue, 27 Oct 2020 11:46:54 +0000 in /lustre/scratch/uccabz1/launch_tmp/launcher_2020-10-27-00-09-26-095487
REM CASTEP 20.1 from code version af48c487+ pr-geom-scf-spinfix Tue Jun 2 15:39:59 2020 +0100
REM Functional Perdew Burke Ernzerhof Relativity Koelling-Harmon Dispersion off
REM Cut-off 340.0000 eV Grid scale 1.7500 Gmax 16.5316 1/A FBSC none
REM MP grid 2 2 3 Offset 0.000 0.000 0.000 No. kpts 6 Spacing 0.07
REM Total runtime: 17760.4 s
REM Overall efficiency: 79.9167 %
REM
REM
REM
REM compiler GCC version 4.9.2
REM options -cpp -iprefix /lustre/shared/ucl/apps/gcc/4.9.2/bin/../lib/gcc/x86_64-unknown-linux-gnu/4.9.2/ -mtune=corei7 -march=x86-64 -g -Og
REM COMMAND_LINE
REM seed 1150143090 350214601 1712405225 -1557664889 1300585737 -753531242 1785971356 -534376421 -825797657 1438120507 -1029362150 955105886
REM
REM S 3|1.8|5|6|7|30:31:32(qc=5)
REM O 2|1.5|12|13|15|20:21(qc=5)
REM Li 1|1.3|8|9|10|10U:20(qc=5)
REM Fe 3|2.2|2.0|1.0|8|9|10|40:41:32(qc=5)
REM Fe d:4.0 
REM
CELL 1.54180    8.81837    8.81837    6.25711   90.00000   90.00000  120.00000
LATT -1
SFAC Li O  S  Fe 
Li     1  0.1654170000000  0.0613680000000 -0.0128400000000 1.0  -0.02
Li     1 -0.0613680000000  0.1040500000000 -0.0128400000000 1.0  -0.02
Li     1 -0.1040500000000 -0.1654170000000 -0.0128400000000 1.0  -0.02
Li     1  0.3092010000000  0.2478070000000  0.3738340000000 1.0   0.06
Li     1 -0.2478070000000  0.0613940000000  0.3738340000000 1.0   0.06
Li     1 -0.0613940000000 -0.3092010000000  0.3738340000000 1.0   0.06
Li     1  0.3333330000000 -0.3333330000000  0.2178220000000 1.0  -0.06
Li     1 -0.0000000000000  0.0000000000000  0.5145590000000 1.0  -0.01
O      2 -0.0000000000000  0.0000000000000  0.2350110000000 1.0   0.02
O      2 -0.0000000000000  0.0000000000000 -0.2164550000000 1.0   0.03
S      3  0.2635150000000  0.3949600000000  0.0267220000000 1.0   0.17
S      3 -0.3949600000000 -0.1314450000000  0.0267220000000 1.0   0.17
S      3  0.1314450000000 -0.2635150000000  0.0267220000000 1.0   0.17
S      3 -0.0471390000000  0.4122750000000 -0.4856490000000 1.0  -0.02
S      3 -0.4122750000000 -0.4594140000000 -0.4856490000000 1.0  -0.02
S      3  0.4594140000000  0.0471390000000 -0.4856490000000 1.0  -0.02
Fe     4  0.0989170000000 -0.5055630000000 -0.1645630000000 1.0   3.72
Fe     4  0.5055630000000 -0.3955200000000 -0.1645630000000 1.0   3.72
Fe     4  0.3955200000000 -0.0989170000000 -0.1645630000000 1.0   3.72
Fe     4 -0.3333330000000  0.3333330000000  0.5837160000000 1.0  -3.70
END
