TITL LFSO-Li6FeSO3-201028-030747-31fae7 -0.0617 257.643446 -7.35942910E+003 -8.00000 8.06817 22 (P21) n - 1
REM
REM Run started: Wed, 28 Oct 2020 07:35:01 +0000 in /scratch/scratch/uccabz1/launch_tmp/launcher_2020-10-28-03-07-45-518380
REM CASTEP 19.11| from code version Version unavailable
REM Functional Perdew Burke Ernzerhof Relativity Koelling-Harmon Dispersion off
REM Cut-off 340.0000 eV Grid scale 1.7500 Gmax 16.5316 1/A FBSC none
REM MP grid 5 4 1 Offset 0.000 0.000 0.000 No. kpts 6 Spacing 0.07
REM Total runtime: 16561.3 s
REM Overall efficiency: 71.75 %
REM
REM
REM
REM compiler GCC version 4.9.2
REM options -cpp -iprefix /scratch/UCL/applications/gcc/4.9.2/bin/../lib/gcc/x86_64-unknown-linux-gnu/4.9.2/ -mtune=corei7 -march=x86-64 -g -O2
REM COMMAND_LINE
REM seed 742946589 -2068352209 -1971279476 726268598 192707367 -858812980 927525986 -1541338000 374462755 -102774613 1201364616 -1231483023
REM
REM S 3|1.8|5|6|7|30:31:32(qc=5)
REM O 2|1.5|12|13|15|20:21(qc=5)
REM Li 1|1.3|8|9|10|10U:20(qc=5)
REM Fe 3|2.2|2.0|1.0|8|9|10|40:41:32(qc=5)
REM Fe d:4.0 
REM
CELL 1.54180    3.58415    3.51781   20.43445   90.18142   90.00000   90.00000
LATT -1
SFAC Li O  S  Fe 
Li     1  0.3034280000000 -0.6286640000000 -0.1113760000000 1.0   0.00
Li     1 -0.1965720000000  0.6286640000000  0.1113760000000 1.0   0.00
Li     1 -0.5944610000000  0.1260050000000  0.2259270000000 1.0   0.03
Li     1 -0.0944610000000 -0.1260050000000 -0.2259270000000 1.0   0.03
Li     1  0.3650420000000  0.3689550000000 -0.2268730000000 1.0   0.00
Li     1 -0.1349580000000 -0.3689550000000  0.2268730000000 1.0   0.00
Li     1 -0.1401070000000 -0.2266940000000 -0.0044270000000 1.0   0.00
Li     1  0.3598930000000  0.2266940000000  0.0044270000000 1.0   0.00
Li     1  0.2481280000000  0.2331550000000 -0.4958710000000 1.0  -0.03
Li     1 -0.2518720000000 -0.2331550000000  0.4958710000000 1.0  -0.03
Li     1  0.3038660000000  0.1302120000000  0.1166350000000 1.0   0.00
Li     1 -0.1961340000000 -0.1302120000000 -0.1166350000000 1.0   0.00
O      2 -0.1193730000000  0.1394510000000  0.2704060000000 1.0  -0.17
O      2  0.3806270000000 -0.1394510000000 -0.2704060000000 1.0  -0.17
O      2 -0.1428520000000  0.3589060000000 -0.1706590000000 1.0  -0.01
O      2  0.3571480000000 -0.3589060000000  0.1706590000000 1.0  -0.01
O      2 -0.1629000000000  0.1823360000000  0.0582090000000 1.0  -0.00
O      2  0.3371000000000 -0.1823360000000 -0.0582090000000 1.0  -0.00
S      3 -0.2560920000000  0.2723530000000 -0.4247700000000 1.0  -0.06
S      3  0.2439080000000 -0.2723530000000  0.4247700000000 1.0  -0.06
Fe     4  0.0227650000000  0.2240910000000  0.3547240000000 1.0  -3.77
Fe     4  0.5227650000000 -0.2240910000000 -0.3547240000000 1.0  -3.77
END
