TITL LFSO-Li4Fe3S4O-201029-135310-f13f0e -0.0218 332.322897 -5.03862939E+003 12.0000 12.1698 12 (P3) n - 1
REM
REM Run started: Thu, 29 Oct 2020 17:19:06 +0000 in /scratch/scratch/uccabz1/launch_tmp/launcher_2020-10-29-13-53-08-990985
REM CASTEP 19.11| from code version Version unavailable
REM Functional Perdew Burke Ernzerhof Relativity Koelling-Harmon Dispersion off
REM Cut-off 340.0000 eV Grid scale 1.7500 Gmax 16.5316 1/A FBSC none
REM MP grid 3 3 2 Offset 0.000 0.000 0.000 No. kpts 5 Spacing 0.07
REM Total runtime: 13060.7 s
REM Overall efficiency: 78.6667 %
REM
REM
REM
REM compiler GCC version 4.9.2
REM options -cpp -iprefix /scratch/UCL/applications/gcc/4.9.2/bin/../lib/gcc/x86_64-unknown-linux-gnu/4.9.2/ -mtune=corei7 -march=x86-64 -g -O2
REM COMMAND_LINE
REM seed -1532641517 1695272137 -902186964 -21625033 2084637318 -1526554090 445922110 1139411438 -567520593 -1787221816 921595793 761441424
REM
REM S 3|1.8|5|6|7|30:31:32(qc=5)
REM O 2|1.5|12|13|15|20:21(qc=5)
REM Li 1|1.3|8|9|10|10U:20(qc=5)
REM Fe 3|2.2|2.0|1.0|8|9|10|40:41:32(qc=5)
REM Fe d:4.0 
REM
CELL 1.54180    7.02411    7.02411    7.77762   90.00000   90.00000  120.00000
LATT -1
SFAC Li O  S  Fe 
Li     1  0.3451640000000  0.0256840000000 -0.4280470000000 1.0   0.00
Li     1 -0.3194800000000 -0.3451640000000 -0.4280470000000 1.0   0.00
Li     1 -0.0256840000000  0.3194800000000 -0.4280470000000 1.0   0.00
Li     1  0.3333330000000 -0.3333330000000 -0.5561020000000 1.0  -0.06
O      2 -0.0000000000000  0.0000000000000  0.1555540000000 1.0   0.21
S      3 -0.3406620000000 -0.0174390000000  0.5140870000000 1.0   0.11
S      3  0.3232230000000  0.3406620000000  0.5140870000000 1.0   0.11
S      3  0.0174390000000 -0.3232230000000  0.5140870000000 1.0   0.11
S      3  0.3333330000000 -0.3333330000000  0.1134800000000 1.0   0.10
Fe     4  0.2096310000000  0.3001100000000  0.2300510000000 1.0   3.80
Fe     4  0.0904790000000 -0.2096310000000  0.2300510000000 1.0   3.80
Fe     4 -0.3001100000000 -0.0904790000000  0.2300510000000 1.0   3.80
END
