TITL LFSO-Li3FeS2O-201024-193509-650232 0.0082 108.666741 -2.50754589E+003 3.80004 3.89781 7 (Pmm2) n - 1
REM
REM Run started: Sat, 24 Oct 2020 19:58:18 +0100 in /scratch/scratch/uccabz1/launch_tmp/launcher_2020-10-24-18-35-07-133184
REM CASTEP 19.11| from code version Version unavailable
REM Functional Perdew Burke Ernzerhof Relativity Koelling-Harmon Dispersion off
REM Cut-off 340.0000 eV Grid scale 1.7500 Gmax 16.5316 1/A FBSC none
REM MP grid 5 4 2 Offset 0.000 0.000 0.000 No. kpts 10 Spacing 0.07
REM Total runtime: 1399.93 s
REM Overall efficiency: 76.7778 %
REM
REM
REM
REM compiler GCC version 4.9.2
REM options -cpp -iprefix /scratch/UCL/applications/gcc/4.9.2/bin/../lib/gcc/x86_64-unknown-linux-gnu/4.9.2/ -mtune=corei7 -march=x86-64 -g -O2
REM COMMAND_LINE
REM seed -319226604 -1108457286 -479747205 145264770 604515322 394892134 -1219396196 847348587 1721876071 730077024 1683341972 -463431133
REM
REM S 3|1.8|5|6|7|30:31:32(qc=5)
REM O 2|1.5|12|13|15|20:21(qc=5)
REM Li 1|1.3|8|9|10|10U:20(qc=5)
REM Fe 3|2.2|2.0|1.0|8|9|10|40:41:32(qc=5)
REM Fe d:4.0 
REM
CELL 1.54180    3.10604    4.28828    8.15843   90.00000   90.00000   90.07619
LATT -1
SFAC Li O  S  Fe 
Li     1  0.0818240000000 -0.1015580000000  0.3481960000000 1.0  -0.05
Li     1  0.0818240000000 -0.1015580000000 -0.3481960000000 1.0  -0.05
Li     1 -0.4184940000000 -0.5463110000000  0.0000000000000 1.0   0.04
O      2 -0.4198060000000 -0.0962190000000  0.5000000000000 1.0   0.05
S      3  0.0733060000000  0.3998140000000  0.2344310000000 1.0   0.01
S      3  0.0733060000000  0.3998140000000 -0.2344310000000 1.0   0.01
Fe     4  0.5830110000000 -0.5942840000000 -0.5000000000000 1.0   3.79
END
