TITL LFSO-Li2Fe2S2O-201022-045557-be0a78 0.0262 197.973062 -3.16959539E+003 7.99996 8.12343 7 (C2) n - 1
REM
REM Run started: Thu, 22 Oct 2020 11:42:21 +0100 in /scratch/scratch/uccabz1/launch_tmp/launcher_2020-10-22-03-55-55-314010
REM CASTEP 19.11| from code version Version unavailable
REM Functional Perdew Burke Ernzerhof Relativity Koelling-Harmon Dispersion off
REM Cut-off 340.0000 eV Grid scale 1.7500 Gmax 16.5316 1/A FBSC none
REM MP grid 5 5 1 Offset 0.000 0.000 0.000 No. kpts 9 Spacing 0.07
REM Total runtime: 26539.4 s
REM Overall efficiency: 72.5385 %
REM
REM
REM
REM compiler GCC version 4.9.2
REM options -cpp -iprefix /scratch/UCL/applications/gcc/4.9.2/bin/../lib/gcc/x86_64-unknown-linux-gnu/4.9.2/ -mtune=corei7 -march=x86-64 -g -O2
REM COMMAND_LINE
REM seed -412475915 1929882900 -933546734 -1003661362 1692696145 1573127243 -1035083895 -1642295320 439982914 112388931 857402946 -1781292080
REM
REM S 3|1.8|5|6|7|30:31:32(qc=5)
REM O 2|1.5|12|13|15|20:21(qc=5)
REM Li 1|1.3|8|9|10|10U:20(qc=5)
REM Fe 3|2.2|2.0|1.0|8|9|10|40:41:32(qc=5)
REM Fe d:4.0 
REM
CELL 1.54180    3.60021    3.60021   15.93881   96.42845   96.42845  103.04645
LATT -1
SFAC Li O  S  Fe 
Li     1 -0.0782640000000 -0.1252110000000 -0.2272020000000 1.0   0.00
Li     1  0.1252110000000  0.0782640000000  0.2272020000000 1.0   0.00
O      2  0.1095540000000 -0.1095540000000  0.0000000000000 1.0   0.13
S      3 -0.2888940000000  0.4654670000000  0.1812580000000 1.0   0.07
S      3 -0.4654670000000  0.2888940000000 -0.1812580000000 1.0   0.07
Fe     4  0.1691790000000  0.4530470000000  0.0748090000000 1.0   3.87
Fe     4 -0.4530470000000 -0.1691790000000 -0.0748090000000 1.0   3.87
END
