TITL LFSO-Li2FeSO-201024-165549-32da53 -0.0183 161.607101 -4.00282567E+003 7.99973 8.11860 10 (P3m1) n - 1
REM
REM Run started: Sat, 24 Oct 2020 18:11:27 +0100 in /lustre/scratch/uccabz1/launch_tmp/launcher_2020-10-24-15-55-48-191167
REM CASTEP 20.1 from code version af48c487+ pr-geom-scf-spinfix Tue Jun 2 15:39:59 2020 +0100
REM Functional Perdew Burke Ernzerhof Relativity Koelling-Harmon Dispersion off
REM Cut-off 340.0000 eV Grid scale 1.7500 Gmax 16.5316 1/A FBSC none
REM MP grid 4 4 2 Offset 0.000 0.000 0.000 No. kpts 16 Spacing 0.07
REM Total runtime: 4811.44 s
REM Overall efficiency: 89 %
REM
REM
REM
REM compiler GCC version 4.9.2
REM options -cpp -iprefix /lustre/shared/ucl/apps/gcc/4.9.2/bin/../lib/gcc/x86_64-unknown-linux-gnu/4.9.2/ -mtune=corei7 -march=x86-64 -g -Og
REM COMMAND_LINE
REM seed 535562985 1033312401 942962270 2032658195 -2145167487 482380221 -2005010762 -1139435587 -1203232190 899655319 -1379145989 1100030445
REM
REM S 3|1.8|5|6|7|30:31:32(qc=5)
REM O 2|1.5|12|13|15|20:21(qc=5)
REM Li 1|1.3|8|9|10|10U:20(qc=5)
REM Fe 3|2.2|2.0|1.0|8|9|10|40:41:32(qc=5)
REM Fe d:4.0 
REM
CELL 1.54180    4.47424    4.47424    9.32161   90.00000   90.00000  120.00000
LATT -1
SFAC Li O  S  Fe 
Li     1  0.0061160000000 -0.4966920000000 -0.0491880000000 1.0  -0.00
Li     1  0.4966920000000  0.5028080000000 -0.0491880000000 1.0  -0.00
Li     1 -0.5028080000000 -0.0061160000000 -0.0491880000000 1.0  -0.00
Li     1 -0.0000000000000  0.0000000000000 -0.4096740000000 1.0  -0.03
O      2  0.3333330000000 -0.3333330000000 -0.4998520000000 1.0   0.22
O      2  0.3333330000000 -0.3333330000000  0.0818050000000 1.0   0.09
S      3 -0.0000000000000  0.0000000000000 -0.1547380000000 1.0   0.01
S      3 -0.0000000000000  0.0000000000000  0.3275090000000 1.0   0.21
Fe     4 -0.3333330000000  0.3333330000000 -0.5610670000000 1.0   3.82
Fe     4  0.3333330000000 -0.3333330000000  0.2873040000000 1.0   3.69
END
