TITL LFSO-Li2Fe4S3O2-201025-110514-2cafec -0.0249 374.666839 -1.12711414E+004 31.9957 32.2673 22 (Pnn2) n - 1
REM
REM Run started: Sun, 25 Oct 2020 13:27:19 +0000 in /lustre/scratch/uccabz1/launch_tmp/launcher_2020-10-25-11-05-12-368576
REM CASTEP 20.1 from code version af48c487+ pr-geom-scf-spinfix Tue Jun 2 15:39:59 2020 +0100
REM Functional Perdew Burke Ernzerhof Relativity Koelling-Harmon Dispersion off
REM Cut-off 340.0000 eV Grid scale 1.7500 Gmax 16.5316 1/A FBSC none
REM MP grid 5 2 2 Offset 0.000 0.000 0.000 No. kpts 3 Spacing 0.07
REM Total runtime: 9409.8 s
REM Overall efficiency: 74.6667 %
REM
REM
REM
REM compiler GCC version 4.9.2
REM options -cpp -iprefix /lustre/shared/ucl/apps/gcc/4.9.2/bin/../lib/gcc/x86_64-unknown-linux-gnu/4.9.2/ -mtune=corei7 -march=x86-64 -g -Og
REM COMMAND_LINE
REM seed 1321692800 1039511710 1636343501 -1737134990 -666077731 111716155 -1347327790 1671157825 -1492569620 -1973548456 1026463412 -150017779
REM
REM S 3|1.8|5|6|7|30:31:32(qc=5)
REM O 2|1.5|12|13|15|20:21(qc=5)
REM Li 1|1.3|8|9|10|10U:20(qc=5)
REM Fe 3|2.2|2.0|1.0|8|9|10|40:41:32(qc=5)
REM Fe d:4.0 
REM
CELL 1.54180    3.40151    9.98737   11.02865   90.00000   90.00000   90.00000
LATT -1
SFAC Li O  S  Fe 
Li     1  0.3066500000000 -0.0846800000000  0.1580770000000 1.0  -0.02
Li     1 -0.3066500000000 -0.0846800000000 -0.1580770000000 1.0  -0.02
Li     1 -0.1933500000000  0.4153200000000  0.3419230000000 1.0  -0.02
Li     1  0.1933500000000  0.4153200000000 -0.3419230000000 1.0  -0.02
O      2 -0.1748340000000  0.3921290000000  0.1582120000000 1.0   0.20
O      2  0.1748340000000  0.3921290000000 -0.1582120000000 1.0   0.20
O      2  0.3251660000000 -0.1078710000000  0.3417880000000 1.0   0.20
O      2 -0.3251660000000 -0.1078710000000 -0.3417880000000 1.0   0.20
S      3  0.2956560000000 -0.4051260000000  0.3330920000000 1.0   0.18
S      3 -0.2956560000000 -0.4051260000000 -0.3330920000000 1.0   0.18
S      3 -0.2043440000000  0.0948740000000  0.1669080000000 1.0   0.18
S      3  0.2043440000000  0.0948740000000 -0.1669080000000 1.0   0.18
S      3  0.0000000000000  0.2066660000000  0.5000000000000 1.0   0.11
S      3 -0.5000000000000 -0.2933340000000  0.0000000000000 1.0   0.11
Fe     4 -0.5554810000000  0.0841940000000  0.3653550000000 1.0   3.80
Fe     4  0.5554810000000  0.0841940000000 -0.3653550000000 1.0   3.80
Fe     4 -0.0554810000000 -0.4158060000000  0.1346450000000 1.0   3.80
Fe     4  0.0554810000000 -0.4158060000000 -0.1346450000000 1.0   3.80
Fe     4  0.3105290000000  0.2757130000000  0.1421640000000 1.0   3.79
Fe     4 -0.3105290000000  0.2757130000000 -0.1421640000000 1.0   3.79
Fe     4 -0.1894710000000 -0.2242870000000  0.3578360000000 1.0   3.79
Fe     4  0.1894710000000 -0.2242870000000 -0.3578360000000 1.0   3.79
END
