TITL LFSO-Li2Fe3S3O-201025-055532-939467 -0.1482 747.102924 -8.67152024E+003 23.9657 24.7536 18 (Cc) n - 1
REM
REM Run started: Mon, 26 Oct 2020 14:22:39 +0000 in /lustre/scratch/uccabz1/launch_tmp/launcher_2020-10-25-05-55-30-167193
REM CASTEP 20.1 from code version af48c487+ pr-geom-scf-spinfix Tue Jun 2 15:39:59 2020 +0100
REM Functional Perdew Burke Ernzerhof Relativity Koelling-Harmon Dispersion off
REM Cut-off 340.0000 eV Grid scale 1.7500 Gmax 16.5316 1/A FBSC none
REM MP grid 5 2 2 Offset 0.000 0.000 0.000 No. kpts 8 Spacing 0.07
REM Total runtime: 143571 s
REM Overall efficiency: 72 %
REM
REM
REM
REM compiler GCC version 4.9.2
REM options -cpp -iprefix /lustre/shared/ucl/apps/gcc/4.9.2/bin/../lib/gcc/x86_64-unknown-linux-gnu/4.9.2/ -mtune=corei7 -march=x86-64 -g -Og
REM COMMAND_LINE
REM seed 1992255335 664820974 1583601335 419609493 -2000980514 -332900530 -470225324 2141590119 -1069955663 57358236 -1086897261 2100087187
REM
REM S 3|1.8|5|6|7|30:31:32(qc=5)
REM O 2|1.5|12|13|15|20:21(qc=5)
REM Li 1|1.3|8|9|10|10U:20(qc=5)
REM Fe 3|2.2|2.0|1.0|8|9|10|40:41:32(qc=5)
REM Fe d:4.0 
REM
CELL 1.54180    3.64197   23.07417   23.07417  154.84643   84.72447   84.72447
LATT -1
SFAC Li O  S  Fe 
Li     1  0.3845820000000  0.0082470000000 -0.4187780000000 1.0   0.02
Li     1 -0.1154180000000 -0.4187780000000  0.0082470000000 1.0   0.02
Li     1 -0.2946490000000 -0.2265910000000  0.2872150000000 1.0  -0.05
Li     1  0.2053510000000  0.2872150000000 -0.2265910000000 1.0  -0.05
O      2 -0.3789460000000 -0.1949710000000  0.4040410000000 1.0   0.14
O      2  0.1210540000000  0.4040410000000 -0.1949710000000 1.0   0.14
S      3 -0.1747870000000  0.1950840000000  0.4991910000000 1.0   0.27
S      3  0.3252130000000  0.4991910000000  0.1950840000000 1.0   0.27
S      3 -0.0677020000000  0.0928920000000 -0.4313720000000 1.0   0.13
S      3  0.4322980000000 -0.4313720000000  0.0928920000000 1.0   0.13
S      3  0.2637020000000  0.1879730000000 -0.1762840000000 1.0   0.17
S      3 -0.2362980000000 -0.1762840000000  0.1879730000000 1.0   0.17
Fe     4  0.1851950000000 -0.2615580000000  0.3630440000000 1.0   3.84
Fe     4 -0.3148050000000  0.3630440000000 -0.2615580000000 1.0   3.84
Fe     4  0.6556360000000  0.2602330000000 -0.0571830000000 1.0   3.69
Fe     4  0.1556360000000 -0.0571830000000  0.2602330000000 1.0   3.69
Fe     4 -0.0326270000000  0.4801150000000  0.0853710000000 1.0   3.77
Fe     4 -0.5326270000000  0.0853710000000  0.4801150000000 1.0   3.77
END
