TITL LFSO-Li2Fe2S2O-201022-022333-8ad02b -0.0292 252.735945 -6.33079869E+003 14.7181 14.9375 14 (P3) n - 1
REM
REM Run started: Thu, 22 Oct 2020 09:23:55 +0100 in /scratch/scratch/uccabz1/launch_tmp/launcher_2020-10-22-01-23-31-194464
REM CASTEP 19.11| from code version Version unavailable
REM Functional Perdew Burke Ernzerhof Relativity Koelling-Harmon Dispersion off
REM Cut-off 340.0000 eV Grid scale 1.7500 Gmax 16.5316 1/A FBSC none
REM MP grid 4 4 2 Offset 0.000 0.000 0.000 No. kpts 16 Spacing 0.07
REM Total runtime: 27615.8 s
REM Overall efficiency: 97.5714 %
REM
REM
REM
REM compiler GCC version 4.9.2
REM options -cpp -iprefix /scratch/UCL/applications/gcc/4.9.2/bin/../lib/gcc/x86_64-unknown-linux-gnu/4.9.2/ -mtune=corei7 -march=x86-64 -g -O2
REM COMMAND_LINE
REM seed 1382383391 -322031725 483235014 -234979833 -375923923 2115871768 1920092646 -91506838 1939548295 1514579451 -1445235750 -1155080448
REM
REM S 3|1.8|5|6|7|30:31:32(qc=5)
REM O 2|1.5|12|13|15|20:21(qc=5)
REM Li 1|1.3|8|9|10|10U:20(qc=5)
REM Fe 3|2.2|2.0|1.0|8|9|10|40:41:32(qc=5)
REM Fe d:4.0 
REM
CELL 1.54180    4.96704    4.96704   11.82879   90.00000   90.00000  120.00000
LATT -1
SFAC Li O  S  Fe 
Li     1  0.2890670000000  0.0046440000000 -0.1486830000000 1.0  -0.02
Li     1 -0.0046440000000  0.2844230000000 -0.1486830000000 1.0  -0.02
Li     1 -0.2844230000000 -0.2890670000000 -0.1486830000000 1.0  -0.02
Li     1 -0.3333330000000  0.3333330000000  0.5109390000000 1.0  -0.01
O      2 -0.0000000000000  0.0000000000000 -0.0395110000000 1.0   0.17
O      2  0.3333330000000 -0.3333330000000  0.4211750000000 1.0   0.72
S      3 -0.5993540000000 -0.5953580000000 -0.2980330000000 1.0   0.01
S      3  0.5953580000000 -0.0039960000000 -0.2980330000000 1.0   0.01
S      3  0.0039960000000  0.5993540000000 -0.2980330000000 1.0   0.01
S      3 -0.0000000000000  0.0000000000000  0.2526830000000 1.0   0.19
Fe     4 -0.0204260000000  0.3037260000000  0.0938880000000 1.0   3.33
Fe     4 -0.3037260000000 -0.3241520000000  0.0938880000000 1.0   3.33
Fe     4  0.3241520000000  0.0204260000000  0.0938880000000 1.0   3.33
Fe     4  0.3333330000000 -0.3333330000000  0.2732370000000 1.0   3.71
END
