TITL LFSO-Li2Fe2S2O-201022-034119-4c328f -0.4799 500.061229 -9.50693302E+003 -24.0000 24.4421 21 (R3) n - 1
REM
REM Run started: Fri, 23 Oct 2020 03:18:58 +0100 in /lustre/scratch/uccabz1/launch_tmp/launcher_2020-10-23-00-33-22-316504
REM CASTEP 20.1 from code version af48c487+ pr-geom-scf-spinfix Tue Jun 2 15:39:59 2020 +0100
REM Functional Perdew Burke Ernzerhof Relativity Koelling-Harmon Dispersion off
REM Cut-off 340.0000 eV Grid scale 1.7500 Gmax 16.5316 1/A FBSC none
REM MP grid 2 2 3 Offset 0.000 0.000 0.000 No. kpts 6 Spacing 0.07
REM Total runtime: 84637.6 s
REM Overall efficiency: 98.4167 %
REM
REM
REM
REM compiler GCC version 4.9.2
REM options -cpp -iprefix /lustre/shared/ucl/apps/gcc/4.9.2/bin/../lib/gcc/x86_64-unknown-linux-gnu/4.9.2/ -mtune=corei7 -march=x86-64 -g -Og
REM COMMAND_LINE
REM seed -951616016 -1315215316 395840484 -1037762927 43875607 -159087457 -1285198005 2014058434 503638943 772157039 5391634 -885616846
REM
REM S 3|1.8|5|6|7|30:31:32(qc=5)
REM O 2|1.5|12|13|15|20:21(qc=5)
REM Li 1|1.3|8|9|10|10U:20(qc=5)
REM Fe 3|2.2|2.0|1.0|8|9|10|40:41:32(qc=5)
REM Fe d:4.0 
REM
CELL 1.54180    9.56325    9.56325    8.38735   55.24281   55.24281   60.00000
LATT -1
SFAC Li O  S  Fe 
Li     1 -0.0373420000000 -0.3680390000000 -0.4105370000000 1.0   0.01
Li     1 -0.3680390000000 -0.1840830000000 -0.4105370000000 1.0   0.01
Li     1 -0.1840830000000 -0.0373420000000 -0.4105370000000 1.0   0.01
Li     1 -0.0720410000000 -0.4891080000000  0.0268460000000 1.0   0.05
Li     1 -0.4891080000000 -0.4656990000000  0.0268460000000 1.0   0.05
Li     1 -0.4656990000000 -0.0720410000000  0.0268460000000 1.0   0.05
O      2  0.0510780000000 -0.1705390000000  0.4474400000000 1.0  -0.20
O      2 -0.1705390000000 -0.3279790000000  0.4474400000000 1.0  -0.20
O      2 -0.3279790000000  0.0510780000000  0.4474400000000 1.0  -0.20
S      3 -0.1769900000000  0.4040880000000 -0.1076750000000 1.0  -0.08
S      3  0.4040880000000 -0.1194230000000 -0.1076750000000 1.0  -0.08
S      3 -0.1194230000000 -0.1769900000000 -0.1076750000000 1.0  -0.08
S      3 -0.0430880000000  0.2476410000000  0.3568830000000 1.0  -0.11
S      3  0.2476410000000 -0.5614380000000  0.3568830000000 1.0  -0.11
S      3 -0.5614380000000 -0.0430880000000  0.3568830000000 1.0  -0.11
Fe     4 -0.1782960000000  0.2042670000000  0.2187680000000 1.0  -3.78
Fe     4  0.2042670000000 -0.2447410000000  0.2187680000000 1.0  -3.78
Fe     4 -0.2447410000000 -0.1782960000000  0.2187680000000 1.0  -3.78
Fe     4 -0.0671270000000  0.4229350000000 -0.5023590000000 1.0  -3.89
Fe     4  0.4229350000000  0.1465500000000 -0.5023590000000 1.0  -3.89
Fe     4  0.1465500000000 -0.0671270000000 -0.5023590000000 1.0  -3.89
END
