TITL LFSO-Li5FeS2O2-201026-105801-27867a 0.0092 421.908894 -6.68316109E+003 5.97673 9.76313 20 (P3) n - 1
REM
REM Run started: Mon, 26 Oct 2020 14:14:32 +0000 in /lustre/scratch/uccabz1/launch_tmp/launcher_2020-10-26-10-57-59-650593
REM CASTEP 20.1 from code version af48c487+ pr-geom-scf-spinfix Tue Jun 2 15:39:59 2020 +0100
REM Functional Perdew Burke Ernzerhof Relativity Koelling-Harmon Dispersion off
REM Cut-off 340.0000 eV Grid scale 1.7500 Gmax 16.5316 1/A FBSC none
REM MP grid 3 2 2 Offset 0.000 0.000 0.000 No. kpts 6 Spacing 0.07
REM Total runtime: 11840.6 s
REM Overall efficiency: 75.8333 %
REM
REM
REM
REM compiler GCC version 4.9.2
REM options -cpp -iprefix /lustre/shared/ucl/apps/gcc/4.9.2/bin/../lib/gcc/x86_64-unknown-linux-gnu/4.9.2/ -mtune=corei7 -march=x86-64 -g -Og
REM COMMAND_LINE
REM seed 1661911432 -762194726 1409375438 -214738049 492453882 1664792973 1275235615 961976250 -1619371040 1174555505 1685761912 1778575013
REM
REM S 3|1.8|5|6|7|30:31:32(qc=5)
REM O 2|1.5|12|13|15|20:21(qc=5)
REM Li 1|1.3|8|9|10|10U:20(qc=5)
REM Fe 3|2.2|2.0|1.0|8|9|10|40:41:32(qc=5)
REM Fe d:4.0 
REM
CELL 1.54180    6.29509    8.79717    8.79717  120.00000   90.00000   90.00000
LATT -1
SFAC Li O  S  Fe 
Li     1  0.1246730000000  0.4432020000000  0.2949380000000 1.0   0.02
Li     1  0.1246730000000 -0.2949380000000  0.1482640000000 1.0   0.02
Li     1  0.1246730000000 -0.1482640000000 -0.4432020000000 1.0   0.02
Li     1 -0.1472280000000  0.0625670000000  0.1875730000000 1.0   0.01
Li     1 -0.1472280000000 -0.1875730000000 -0.1250060000000 1.0   0.01
Li     1 -0.1472280000000  0.1250060000000 -0.0625670000000 1.0   0.01
Li     1  0.2350650000000  0.1237790000000 -0.0639220000000 1.0   0.01
Li     1  0.2350650000000  0.0639220000000  0.1877010000000 1.0   0.01
Li     1  0.2350650000000 -0.1877010000000 -0.1237790000000 1.0   0.01
Li     1 -0.1825640000000  0.3333330000000 -0.3333330000000 1.0  -0.05
O      2  0.0459190000000 -0.1380360000000  0.0804600000000 1.0  -0.43
O      2  0.0459190000000 -0.0804600000000 -0.2184950000000 1.0  -0.43
O      2  0.0459190000000  0.2184950000000  0.1380360000000 1.0  -0.43
O      2  0.2456150000000 -0.3333330000000  0.3333330000000 1.0   0.17
S      3  0.0701700000000  0.3729890000000 -0.0833700000000 1.0  -0.20
S      3  0.0701700000000  0.0833700000000  0.4563590000000 1.0  -0.20
S      3  0.0701700000000 -0.4563590000000 -0.3729890000000 1.0  -0.20
S      3 -0.4546360000000 -0.0000000000000  0.0000000000000 1.0  -0.05
Fe     4  0.2011890000000  0.3333330000000 -0.3333330000000 1.0   3.29
Fe     4 -0.4665200000000 -0.3333330000000  0.3333330000000 1.0   4.42
END
