TITL LFSO-Li2FeSO-201025-113417-5646a6 -0.0066 100.678084 -2.00283296E+003 3.99601 4.08254 5 (P3m1) n - 1
REM
REM Run started: Sun, 25 Oct 2020 11:42:18 +0000 in /lustre/scratch/uccabz1/launch_tmp/launcher_2020-10-25-11-34-15-464624
REM CASTEP 20.1 from code version af48c487+ pr-geom-scf-spinfix Tue Jun 2 15:39:59 2020 +0100
REM Functional Perdew Burke Ernzerhof Relativity Koelling-Harmon Dispersion off
REM Cut-off 340.0000 eV Grid scale 1.7500 Gmax 16.5316 1/A FBSC none
REM MP grid 5 5 2 Offset 0.000 0.000 0.000 No. kpts 7 Spacing 0.07
REM Total runtime: 661.4 s
REM Overall efficiency: 71.3333 %
REM
REM
REM
REM compiler GCC version 4.9.2
REM options -cpp -iprefix /lustre/shared/ucl/apps/gcc/4.9.2/bin/../lib/gcc/x86_64-unknown-linux-gnu/4.9.2/ -mtune=corei7 -march=x86-64 -g -Og
REM COMMAND_LINE
REM seed -882813484 217538594 973420235 -1588136028 900460644 323245391 1834836757 -1133906677 1912822255 -1729335089 1069649193 -798972560
REM
REM S 3|1.8|5|6|7|30:31:32(qc=5)
REM O 2|1.5|12|13|15|20:21(qc=5)
REM Li 1|1.3|8|9|10|10U:20(qc=5)
REM Fe 3|2.2|2.0|1.0|8|9|10|40:41:32(qc=5)
REM Fe d:4.0 
REM
CELL 1.54180    3.53300    3.53300    9.31359   90.00000   90.00000  120.00000
LATT -1
SFAC Li O  S  Fe 
Li     1 -0.3333330000000  0.3333330000000 -0.4357970000000 1.0  -0.02
Li     1  0.3333330000000 -0.3333330000000  0.3447580000000 1.0  -0.01
O      2  0.0000000000000  0.0000000000000 -0.0897510000000 1.0   0.14
S      3  0.0000000000000  0.0000000000000  0.4500680000000 1.0   0.00
Fe     4  0.3333330000000 -0.3333330000000 -0.0833230000000 1.0   3.87
END
