TITL LFSO-Li2Fe4S4O-201023-044229-114727 0.0067 413.093408 -1.10022652E+004 31.9995 32.1437 22 (C2221) n - 1
REM
REM Run started: Fri, 23 Oct 2020 09:57:46 +0100 in /lustre/scratch/uccabz1/launch_tmp/launcher_2020-10-23-03-42-27-338369
REM CASTEP 20.1 from code version af48c487+ pr-geom-scf-spinfix Tue Jun 2 15:39:59 2020 +0100
REM Functional Perdew Burke Ernzerhof Relativity Koelling-Harmon Dispersion off
REM Cut-off 340.0000 eV Grid scale 1.7500 Gmax 16.5316 1/A FBSC none
REM MP grid 3 3 2 Offset 0.000 0.000 0.000 No. kpts 4 Spacing 0.07
REM Total runtime: 20439.2 s
REM Overall efficiency: 78.6154 %
REM
REM
REM
REM compiler GCC version 4.9.2
REM options -cpp -iprefix /lustre/shared/ucl/apps/gcc/4.9.2/bin/../lib/gcc/x86_64-unknown-linux-gnu/4.9.2/ -mtune=corei7 -march=x86-64 -g -Og
REM COMMAND_LINE
REM seed -349695287 -785017335 2080794852 -1368644567 430874742 1809177710 -1371936159 -1652948606 285833804 928167673 -413385574 -1218591407
REM
REM S 3|1.8|5|6|7|30:31:32(qc=5)
REM O 2|1.5|12|13|15|20:21(qc=5)
REM Li 1|1.3|8|9|10|10U:20(qc=5)
REM Fe 3|2.2|2.0|1.0|8|9|10|40:41:32(qc=5)
REM Fe d:4.0 
REM
CELL 1.54180    7.50379    7.50379    9.38902   90.00000   90.00000  128.61224
LATT -1
SFAC Li O  S  Fe 
Li     1  0.2293540000000 -0.5754100000000  0.1302850000000 1.0  -0.03
Li     1 -0.2293540000000  0.5754100000000 -0.3697150000000 1.0  -0.03
Li     1 -0.5754100000000  0.2293540000000  0.3697150000000 1.0  -0.03
Li     1  0.5754100000000 -0.2293540000000 -0.1302850000000 1.0  -0.03
O      2 -0.3280970000000  0.3280970000000 -0.0000000000000 1.0   0.17
O      2  0.3280970000000 -0.3280970000000 -0.5000000000000 1.0   0.17
S      3 -0.3934940000000 -0.2340830000000  0.1241310000000 1.0   0.15
S      3  0.3934940000000  0.2340830000000 -0.3758690000000 1.0   0.15
S      3 -0.2340830000000 -0.3934940000000  0.3758690000000 1.0   0.15
S      3  0.2340830000000  0.3934940000000 -0.1241310000000 1.0   0.15
S      3 -0.0477960000000  0.2502490000000  0.3187420000000 1.0   0.13
S      3  0.0477960000000 -0.2502490000000 -0.1812580000000 1.0   0.13
S      3  0.2502490000000 -0.0477960000000  0.1812580000000 1.0   0.13
S      3 -0.2502490000000  0.0477960000000 -0.3187420000000 1.0   0.13
Fe     4  0.1488880000000  0.3476780000000 -0.4091300000000 1.0   3.87
Fe     4 -0.1488880000000 -0.3476780000000  0.0908700000000 1.0   3.87
Fe     4  0.3476780000000  0.1488880000000 -0.0908700000000 1.0   3.87
Fe     4 -0.3476780000000 -0.1488880000000  0.4091300000000 1.0   3.87
Fe     4 -0.3554980000000  0.0988270000000  0.1403740000000 1.0   3.79
Fe     4  0.3554980000000 -0.0988270000000 -0.3596260000000 1.0   3.79
Fe     4  0.0988270000000 -0.3554980000000  0.3596260000000 1.0   3.79
Fe     4 -0.0988270000000  0.3554980000000 -0.1403740000000 1.0   3.79
END
