TITL LFSO-Li5FeS2O2-201026-104638-434b30 0.0370 392.912655 -6.68687202E+003 7.99999 8.21570 20 (P3) n - 1
REM
REM Run started: Mon, 26 Oct 2020 12:02:02 +0000 in /lustre/scratch/uccabz1/launch_tmp/launcher_2020-10-26-10-46-36-850954
REM CASTEP 20.1 from code version af48c487+ pr-geom-scf-spinfix Tue Jun 2 15:39:59 2020 +0100
REM Functional Perdew Burke Ernzerhof Relativity Koelling-Harmon Dispersion off
REM Cut-off 340.0000 eV Grid scale 1.7500 Gmax 16.5316 1/A FBSC none
REM MP grid 3 3 2 Offset 0.000 0.000 0.000 No. kpts 5 Spacing 0.07
REM Total runtime: 4553.81 s
REM Overall efficiency: 77.7 %
REM
REM
REM
REM compiler GCC version 4.9.2
REM options -cpp -iprefix /lustre/shared/ucl/apps/gcc/4.9.2/bin/../lib/gcc/x86_64-unknown-linux-gnu/4.9.2/ -mtune=corei7 -march=x86-64 -g -Og
REM COMMAND_LINE
REM seed -107730490 1901858742 -1700657026 -14950093 1220729354 -1069781558 -1097459208 -1297126424 98473103 -1322791423 -1102428923 -795181321
REM
REM S 3|1.8|5|6|7|30:31:32(qc=5)
REM O 2|1.5|12|13|15|20:21(qc=5)
REM Li 1|1.3|8|9|10|10U:20(qc=5)
REM Fe 3|2.2|2.0|1.0|8|9|10|40:41:32(qc=5)
REM Fe d:4.0 
REM
CELL 1.54180    6.63151    6.63151   10.31670   90.00000   90.00000  120.00000
LATT -1
SFAC Li O  S  Fe 
Li     1  0.3370230000000  0.0012500000000  0.3769580000000 1.0   0.01
Li     1 -0.3357720000000 -0.3370230000000  0.3769580000000 1.0   0.01
Li     1 -0.0012500000000  0.3357720000000  0.3769580000000 1.0   0.01
Li     1  0.2746630000000  0.1916480000000 -0.1953920000000 1.0  -0.02
Li     1 -0.0830150000000 -0.2746630000000 -0.1953920000000 1.0  -0.02
Li     1 -0.1916480000000  0.0830150000000 -0.1953920000000 1.0  -0.02
Li     1  0.3549860000000 -0.0288920000000  0.1333620000000 1.0  -0.04
Li     1 -0.3838770000000 -0.3549860000000  0.1333620000000 1.0  -0.04
Li     1  0.0288920000000  0.3838770000000  0.1333620000000 1.0  -0.04
Li     1  0.0000000000000 -0.0000000000000  0.2735380000000 1.0  -0.05
O      2 -0.2381740000000 -0.3331810000000 -0.0399390000000 1.0   0.14
O      2 -0.0950060000000  0.2381740000000 -0.0399390000000 1.0   0.14
O      2  0.3331810000000  0.0950060000000 -0.0399390000000 1.0   0.14
O      2  0.0000000000000 -0.0000000000000 -0.2790610000000 1.0   0.00
S      3  0.0033990000000 -0.3296800000000  0.2545590000000 1.0   0.02
S      3 -0.3330790000000 -0.0033990000000  0.2545590000000 1.0   0.02
S      3  0.3296800000000  0.3330790000000  0.2545590000000 1.0   0.02
S      3  0.0000000000000 -0.0000000000000  0.5503810000000 1.0   0.00
Fe     4 -0.3333330000000  0.3333330000000 -0.0187070000000 1.0   3.83
Fe     4  0.0000000000000 -0.0000000000000  0.0143060000000 1.0   3.90
END
