TITL LFSO-Li5FeSO3-201026-211909-e8ee77 0.0555 273.220093 -6.95593698E+003 9.97387 10.0563 20 (Pma2) n - 1
REM
REM Run started: Mon, 26 Oct 2020 22:19:37 +0000 in /lustre/scratch/uccabz1/launch_tmp/launcher_2020-10-26-21-19-07-495412
REM CASTEP 20.1 from code version af48c487+ pr-geom-scf-spinfix Tue Jun 2 15:39:59 2020 +0100
REM Functional Perdew Burke Ernzerhof Relativity Koelling-Harmon Dispersion off
REM Cut-off 340.0000 eV Grid scale 1.7500 Gmax 16.5316 1/A FBSC none
REM MP grid 5 3 1 Offset 0.000 0.000 0.000 No. kpts 6 Spacing 0.07
REM Total runtime: 3725.83 s
REM Overall efficiency: 71.8889 %
REM
REM
REM
REM compiler GCC version 4.9.2
REM options -cpp -iprefix /lustre/shared/ucl/apps/gcc/4.9.2/bin/../lib/gcc/x86_64-unknown-linux-gnu/4.9.2/ -mtune=corei7 -march=x86-64 -g -Og
REM COMMAND_LINE
REM seed -1594632997 -733429891 -1072697913 67037263 2015945788 -2131768130 379506511 -1342235189 508247731 1403537060 2009451240 1083363777
REM
REM S 3|1.8|5|6|7|30:31:32(qc=5)
REM O 2|1.5|12|13|15|20:21(qc=5)
REM Li 1|1.3|8|9|10|10U:20(qc=5)
REM Fe 3|2.2|2.0|1.0|8|9|10|40:41:32(qc=5)
REM Fe d:4.0 
REM
CELL 1.54180    3.48456    5.46014   14.36021   90.00000   90.00000   90.00000
LATT -1
SFAC Li O  S  Fe 
Li     1 -0.1839460000000  0.3857390000000 -0.1617260000000 1.0   0.02
Li     1  0.1839460000000  0.3857390000000  0.1617260000000 1.0   0.02
Li     1  0.1839460000000  0.3857390000000  0.3382740000000 1.0   0.02
Li     1 -0.1839460000000  0.3857390000000 -0.3382740000000 1.0   0.02
Li     1 -0.0732260000000 -0.0766370000000  0.1626350000000 1.0  -0.03
Li     1  0.0732260000000 -0.0766370000000 -0.1626350000000 1.0  -0.03
Li     1  0.0732260000000 -0.0766370000000 -0.3373650000000 1.0  -0.03
Li     1 -0.0732260000000 -0.0766370000000  0.3373650000000 1.0  -0.03
Li     1 -0.5000000000000  0.5223840000000 -0.0000000000000 1.0   0.00
Li     1  0.5000000000000  0.5223840000000  0.5000000000000 1.0   0.00
O      2 -0.4483440000000 -0.2466060000000 -0.3961300000000 1.0   0.37
O      2  0.4483440000000 -0.2466060000000  0.3961300000000 1.0   0.37
O      2  0.4483440000000 -0.2466060000000  0.1038700000000 1.0   0.37
O      2 -0.4483440000000 -0.2466060000000 -0.1038700000000 1.0   0.37
O      2  0.0147570000000  0.1879890000000 -0.2500000000000 1.0   0.08
O      2 -0.0147570000000  0.1879890000000  0.2500000000000 1.0   0.08
S      3  0.0000000000000  0.2419890000000 -0.0000000000000 1.0   0.26
S      3  0.0000000000000  0.2419890000000  0.5000000000000 1.0   0.26
Fe     4 -0.5000000000000 -0.0455670000000 -0.0000000000000 1.0   3.93
Fe     4  0.5000000000000 -0.0455670000000  0.5000000000000 1.0   3.93
END
