TITL LFSO-Li2Fe3S2O2-201022-141703-bc3fed -0.0101 280.533809 -4.46703834E+003 12.0000 12.2153 9 (R3) n - 1
REM
REM Run started: Thu, 22 Oct 2020 19:26:32 +0100 in /lustre/scratch/uccabz1/launch_tmp/launcher_2020-10-22-13-17-01-983838
REM CASTEP 20.1 from code version af48c487+ pr-geom-scf-spinfix Tue Jun 2 15:39:59 2020 +0100
REM Functional Perdew Burke Ernzerhof Relativity Koelling-Harmon Dispersion off
REM Cut-off 340.0000 eV Grid scale 1.7500 Gmax 16.5316 1/A FBSC none
REM MP grid 3 3 2 Offset 0.000 0.000 0.000 No. kpts 7 Spacing 0.07
REM Total runtime: 20430.2 s
REM Overall efficiency: 96.7692 %
REM
REM
REM
REM compiler GCC version 4.9.2
REM options -cpp -iprefix /lustre/shared/ucl/apps/gcc/4.9.2/bin/../lib/gcc/x86_64-unknown-linux-gnu/4.9.2/ -mtune=corei7 -march=x86-64 -g -Og
REM COMMAND_LINE
REM seed 417788072 1598672400 427922851 1478467792 2062042808 90500708 1043006934 -677047289 332058797 918217613 458643819 404994070
REM
REM S 3|1.8|5|6|7|30:31:32(qc=5)
REM O 2|1.5|12|13|15|20:21(qc=5)
REM Li 1|1.3|8|9|10|10U:20(qc=5)
REM Fe 3|2.2|2.0|1.0|8|9|10|40:41:32(qc=5)
REM Fe d:4.0 
REM
CELL 1.54180    5.98022    5.98022    9.69350   72.03328   72.03328   60.00000
LATT -1
SFAC Li O  S  Fe 
Li     1 -0.2052670000000 -0.2052670000000  0.6158020000000 1.0  -0.08
Li     1 -0.0110200000000 -0.0110200000000  0.0330590000000 1.0  -0.03
O      2  0.0543680000000  0.0543680000000 -0.1631040000000 1.0   0.14
O      2  0.3569470000000  0.3569470000000 -1.0708420000000 1.0   0.30
S      3  0.4671460000000  0.4671460000000 -1.4014370000000 1.0   0.13
S      3 -0.2902160000000 -0.2902160000000  0.8706490000000 1.0   0.11
Fe     4  0.1445680000000  0.3508410000000 -0.1941920000000 1.0   3.81
Fe     4 -0.3012160000000  0.1445680000000 -0.1941920000000 1.0   3.81
Fe     4  0.3508410000000 -0.3012160000000 -0.1941920000000 1.0   3.81
END
