TITL LFSO-Li5FeSO3-201026-093139-5164a9 -0.0164 231.369820 -6.95756242E+003 6.03749 8.62511 20 (C2/c) n - 1
REM
REM Run started: Mon, 26 Oct 2020 13:29:59 +0000 in /scratch/scratch/uccabz1/launch_tmp/launcher_2020-10-26-09-31-38-205835
REM CASTEP 19.11| from code version Version unavailable
REM Functional Perdew Burke Ernzerhof Relativity Koelling-Harmon Dispersion off
REM Cut-off 340.0000 eV Grid scale 1.7500 Gmax 16.5316 1/A FBSC none
REM MP grid 3 4 4 Offset 0.000 0.000 0.000 No. kpts 24 Spacing 0.07
REM Total runtime: 15348.3 s
REM Overall efficiency: 85.4286 %
REM
REM
REM
REM compiler GCC version 4.9.2
REM options -cpp -iprefix /scratch/UCL/applications/gcc/4.9.2/bin/../lib/gcc/x86_64-unknown-linux-gnu/4.9.2/ -mtune=corei7 -march=x86-64 -g -O2
REM COMMAND_LINE
REM seed -700358716 -797415537 -546472653 -1555188940 1113239999 744424768 -365210256 -316980687 4688083 838694292 1597156742 846355718
REM
REM S 3|1.8|5|6|7|30:31:32(qc=5)
REM O 2|1.5|12|13|15|20:21(qc=5)
REM Li 1|1.3|8|9|10|10U:20(qc=5)
REM Fe 3|2.2|2.0|1.0|8|9|10|40:41:32(qc=5)
REM Fe d:4.0 
REM
CELL 1.54180   10.40323    5.20107    7.89302  121.44837  131.22471   90.00001
LATT -1
SFAC Li O  S  Fe 
Li     1  0.2634410000000  0.2759860000000 -0.4062280000000 1.0  -0.00
Li     1 -0.3303310000000  0.2240140000000  0.4062280000000 1.0  -0.00
Li     1 -0.2634410000000 -0.2759860000000  0.4062280000000 1.0  -0.00
Li     1  0.3303310000000 -0.2240140000000 -0.4062280000000 1.0  -0.00
Li     1 -0.0195600000000 -0.4372670000000  0.1432970000000 1.0  -0.02
Li     1 -0.1628580000000 -0.0627330000000 -0.1432970000000 1.0  -0.02
Li     1  0.0195600000000  0.4372670000000 -0.1432970000000 1.0  -0.02
Li     1  0.1628580000000  0.0627330000000  0.1432970000000 1.0  -0.02
Li     1  0.3721510000000  0.2500000000000  0.0000000000000 1.0   0.00
Li     1 -0.3721510000000 -0.2500000000000  0.0000000000000 1.0   0.00
O      2  0.0680710000000  0.3422650000000  0.3073850000000 1.0   0.03
O      2 -0.2393140000000  0.1577350000000 -0.3073850000000 1.0   0.03
O      2 -0.0680710000000 -0.3422650000000 -0.3073850000000 1.0   0.03
O      2  0.2393140000000 -0.1577350000000  0.3073850000000 1.0   0.03
O      2  0.5000000000000 -0.0000000000000  0.0000000000000 1.0  -0.54
O      2 -0.5000000000000  0.5000000000000  0.0000000000000 1.0  -0.54
S      3 -0.5000000000000 -0.5000000000000  0.5000000000000 1.0  -0.09
S      3  0.0000000000000 -0.0000000000000 -0.5000000000000 1.0  -0.09
Fe     4 -0.5000000000000 -0.0000000000000 -0.5000000000000 1.0   3.63
Fe     4  0.0000000000000  0.5000000000000  0.5000000000000 1.0   3.63
END
