TITL LFSO-Li2Fe3S2O2-201024-052356-ecdf32 -0.0167 171.904315 -4.46840140E+003 10.0000 10.3136 9 (C2) n - 1
REM
REM Run started: Sat, 24 Oct 2020 06:51:30 +0100 in /lustre/scratch/uccabz1/launch_tmp/launcher_2020-10-24-04-23-54-280131
REM CASTEP 20.1 from code version af48c487+ pr-geom-scf-spinfix Tue Jun 2 15:39:59 2020 +0100
REM Functional Perdew Burke Ernzerhof Relativity Koelling-Harmon Dispersion off
REM Cut-off 340.0000 eV Grid scale 1.7500 Gmax 16.5316 1/A FBSC none
REM MP grid 4 3 3 Offset 0.000 0.000 0.000 No. kpts 12 Spacing 0.07
REM Total runtime: 5994.61 s
REM Overall efficiency: 76.3333 %
REM
REM
REM
REM compiler GCC version 4.9.2
REM options -cpp -iprefix /lustre/shared/ucl/apps/gcc/4.9.2/bin/../lib/gcc/x86_64-unknown-linux-gnu/4.9.2/ -mtune=corei7 -march=x86-64 -g -Og
REM COMMAND_LINE
REM seed -1996544300 1881319229 -1924483785 -650112288 -1814914757 458040581 1609109232 1186468117 -353869472 -412672567 -1904481072 -1229381168
REM
REM S 3|1.8|5|6|7|30:31:32(qc=5)
REM O 2|1.5|12|13|15|20:21(qc=5)
REM Li 1|1.3|8|9|10|10U:20(qc=5)
REM Fe 3|2.2|2.0|1.0|8|9|10|40:41:32(qc=5)
REM Fe d:4.0 
REM
CELL 1.54180    6.45061    6.67127    6.67127   87.59692  125.29573  125.29573
LATT -1
SFAC Li O  S  Fe 
Li     1  0.2873570000000 -0.1290230000000  0.0599010000000 1.0  -0.02
Li     1 -0.2873570000000 -0.0599010000000  0.1290230000000 1.0  -0.02
O      2  0.2351320000000 -0.3565350000000 -0.2007100000000 1.0   0.10
O      2 -0.2351320000000  0.2007100000000  0.3565350000000 1.0   0.10
S      3  0.1637270000000  0.2986730000000  0.1623400000000 1.0  -0.00
S      3 -0.1637270000000 -0.1623400000000 -0.2986730000000 1.0  -0.00
Fe     4  0.2606110000000 -0.4641040000000  0.5212280000000 1.0   3.71
Fe     4 -0.2606110000000 -0.5212280000000  0.4641040000000 1.0   3.71
Fe     4 -0.0000000000000  0.2536490000000 -0.2536490000000 1.0   2.43
END
