TITL LFSO-Li5FeSO3-201028-015921-3ddea2 0.0420 251.403300 -6.95712815E+003 9.99965 10.0813 20 (C2221) n - 1
REM
REM Run started: Wed, 28 Oct 2020 02:54:18 +0000 in /scratch/scratch/uccabz1/launch_tmp/launcher_2020-10-28-01-59-18-782210
REM CASTEP 19.11| from code version Version unavailable
REM Functional Perdew Burke Ernzerhof Relativity Koelling-Harmon Dispersion off
REM Cut-off 340.0000 eV Grid scale 1.7500 Gmax 16.5316 1/A FBSC none
REM MP grid 3 3 2 Offset 0.000 0.000 0.000 No. kpts 4 Spacing 0.07
REM Total runtime: 3744.66 s
REM Overall efficiency: 90.6667 %
REM
REM
REM
REM compiler GCC version 4.9.2
REM options -cpp -iprefix /scratch/UCL/applications/gcc/4.9.2/bin/../lib/gcc/x86_64-unknown-linux-gnu/4.9.2/ -mtune=corei7 -march=x86-64 -g -O2
REM COMMAND_LINE
REM seed -1831898952 126940854 1848390691 -94974741 -1474291925 645747234 -1462412121 1018849334 -2097030949 -1171095310 2032248544 -1094443299
REM
REM S 3|1.8|5|6|7|30:31:32(qc=5)
REM O 2|1.5|12|13|15|20:21(qc=5)
REM Li 1|1.3|8|9|10|10U:20(qc=5)
REM Fe 3|2.2|2.0|1.0|8|9|10|40:41:32(qc=5)
REM Fe d:4.0 
REM
CELL 1.54180    5.63975    5.88683    8.62642   90.00000   90.00000  118.62109
LATT -1
SFAC Li O  S  Fe 
Li     1  0.3740110000000  0.3100370000000  0.2832090000000 1.0  -0.01
Li     1 -0.3740110000000 -0.3100370000000 -0.2167910000000 1.0  -0.01
Li     1  0.0639740000000 -0.3100370000000  0.2167910000000 1.0  -0.01
Li     1 -0.0639740000000  0.3100370000000 -0.2832090000000 1.0  -0.01
Li     1  0.3431480000000  0.2495460000000 -0.3797810000000 1.0  -0.01
Li     1 -0.3431480000000 -0.2495460000000  0.1202190000000 1.0  -0.01
Li     1  0.0936020000000 -0.2495460000000 -0.1202190000000 1.0  -0.01
Li     1 -0.0936020000000  0.2495460000000  0.3797810000000 1.0  -0.01
Li     1  0.2465660000000  0.4931320000000  0.0000000000000 1.0  -0.01
Li     1 -0.2465660000000 -0.4931320000000  0.5000000000000 1.0  -0.01
O      2  0.3056230000000 -0.4396790000000 -0.3313150000000 1.0   0.27
O      2 -0.3056220000000  0.4396800000000  0.1686850000000 1.0   0.27
O      2 -0.2546980000000  0.4396800000000 -0.1686850000000 1.0   0.27
O      2  0.2546980000000 -0.4396790000000  0.3313150000000 1.0   0.27
O      2  0.4158070000000 -0.1683850000000  0.0000000000000 1.0   0.20
O      2 -0.4158070000000  0.1683850000000 -0.5000000000000 1.0   0.20
S      3  0.0386020000000  0.0772030000000  0.0000000000000 1.0   0.19
S      3 -0.0386020000000 -0.0772030000000  0.5000000000000 1.0   0.19
Fe     4 -0.3971110000000  0.2057780000000  0.0000000000000 1.0   4.13
Fe     4  0.3971110000000 -0.2057780000000  0.5000000000000 1.0   4.13
END
