TITL LFSO-Li2Fe3S2O2-201024-033756-1fb5bf -0.0706 186.973587 -4.46887907E+003 12.0000 12.0814 9 (R3) n - 1
REM
REM Run started: Sat, 24 Oct 2020 05:46:39 +0100 in /lustre/scratch/uccabz1/launch_tmp/launcher_2020-10-24-02-37-55-135848
REM CASTEP 20.1 from code version af48c487+ pr-geom-scf-spinfix Tue Jun 2 15:39:59 2020 +0100
REM Functional Perdew Burke Ernzerhof Relativity Koelling-Harmon Dispersion off
REM Cut-off 340.0000 eV Grid scale 1.7500 Gmax 16.5316 1/A FBSC none
REM MP grid 3 3 3 Offset 0.000 0.000 0.000 No. kpts 6 Spacing 0.07
REM Total runtime: 8359.39 s
REM Overall efficiency: 95.4286 %
REM
REM
REM
REM compiler GCC version 4.9.2
REM options -cpp -iprefix /lustre/shared/ucl/apps/gcc/4.9.2/bin/../lib/gcc/x86_64-unknown-linux-gnu/4.9.2/ -mtune=corei7 -march=x86-64 -g -Og
REM COMMAND_LINE
REM seed -185725393 1858739587 686320176 469842685 459557831 -1836521512 812490150 -12820951 1888162413 1599182244 -1956903240 -1107343536
REM
REM S 3|1.8|5|6|7|30:31:32(qc=5)
REM O 2|1.5|12|13|15|20:21(qc=5)
REM Li 1|1.3|8|9|10|10U:20(qc=5)
REM Fe 3|2.2|2.0|1.0|8|9|10|40:41:32(qc=5)
REM Fe d:4.0 
REM
CELL 1.54180    7.03253    7.03253    7.03253   49.85605   49.85605   49.85605
LATT -1
SFAC Li O  S  Fe 
Li     1  0.3156000000000  0.3156000000000  0.3156000000000 1.0  -0.00
Li     1 -0.2855860000000 -0.2855860000000 -0.2855860000000 1.0  -0.03
O      2 -0.4004980000000 -0.4004980000000 -0.4004980000000 1.0   0.15
O      2 -0.1719090000000 -0.1719090000000 -0.1719090000000 1.0   0.16
S      3  0.4328320000000  0.4328320000000  0.4328320000000 1.0   0.17
S      3  0.1961730000000  0.1961730000000  0.1961730000000 1.0   0.09
Fe     4  0.2177780000000 -0.3968500000000 -0.2289960000000 1.0   3.82
Fe     4 -0.2289960000000  0.2177780000000 -0.3968500000000 1.0   3.82
Fe     4 -0.3968500000000 -0.2289960000000  0.2177780000000 1.0   3.82
END
