TITL LFSO-LiFe3S4O-201028-135812-a619a1 -0.0097 186.887046 -4.43684605E+003 9.01499 11.9574 9 (R3) n - 1
REM
REM Run started: Wed, 28 Oct 2020 16:40:44 +0000 in /lustre/scratch/uccabz1/launch_tmp/launcher_2020-10-28-13-58-11-130749
REM CASTEP 20.1 from code version af48c487+ pr-geom-scf-spinfix Tue Jun 2 15:39:59 2020 +0100
REM Functional Perdew Burke Ernzerhof Relativity Koelling-Harmon Dispersion off
REM Cut-off 340.0000 eV Grid scale 1.7500 Gmax 16.5316 1/A FBSC none
REM MP grid 3 3 4 Offset 0.000 0.000 0.000 No. kpts 14 Spacing 0.07
REM Total runtime: 9844.91 s
REM Overall efficiency: 95.125 %
REM
REM
REM
REM compiler GCC version 4.9.2
REM options -cpp -iprefix /lustre/shared/ucl/apps/gcc/4.9.2/bin/../lib/gcc/x86_64-unknown-linux-gnu/4.9.2/ -mtune=corei7 -march=x86-64 -g -Og
REM COMMAND_LINE
REM seed 1720530158 -1908521333 1807717971 -632681930 -793847531 2111533184 -1822660950 -2142565945 -1813529124 -1688219978 -1212348181 1059007436
REM
REM S 3|1.8|5|6|7|30:31:32(qc=5)
REM O 2|1.5|12|13|15|20:21(qc=5)
REM Li 1|1.3|8|9|10|10U:20(qc=5)
REM Fe 3|2.2|2.0|1.0|8|9|10|40:41:32(qc=5)
REM Fe d:4.0 
REM
CELL 1.54180    7.19246    7.19246    5.88603   52.33980   52.33980   60.00000
LATT -1
SFAC Li O  S  Fe 
Li     1 -0.1228420000000 -0.1228420000000 -0.6314750000000 1.0  -0.07
O      2 -0.2873900000000 -0.2873900000000 -0.1378290000000 1.0   0.08
S      3 -0.5035880000000  0.1642620000000  0.3880980000000 1.0  -0.36
S      3 -0.0487710000000 -0.5035880000000  0.3880980000000 1.0  -0.36
S      3  0.1642620000000 -0.0487710000000  0.3880980000000 1.0  -0.36
S      3  0.4179760000000  0.4179760000000 -0.2539270000000 1.0  -0.58
Fe     4 -0.3675310000000  0.4730410000000 -0.1145320000000 1.0   3.55
Fe     4  0.0090220000000 -0.3675310000000 -0.1145320000000 1.0   3.55
Fe     4  0.4730410000000  0.0090220000000 -0.1145320000000 1.0   3.55
END
