TITL LFSO-Li2Fe3S2O2-201022-103211-68a2ff 0.0119 176.859677 -4.46844223E+003 12.0000 12.1612 9 (R3) n - 1
REM
REM Run started: Thu, 22 Oct 2020 11:56:35 +0100 in /lustre/scratch/uccabz1/launch_tmp/launcher_2020-10-22-09-32-10-168495
REM CASTEP 20.1 from code version af48c487+ pr-geom-scf-spinfix Tue Jun 2 15:39:59 2020 +0100
REM Functional Perdew Burke Ernzerhof Relativity Koelling-Harmon Dispersion off
REM Cut-off 340.0000 eV Grid scale 1.7500 Gmax 16.5316 1/A FBSC none
REM MP grid 3 3 3 Offset 0.000 0.000 0.000 No. kpts 6 Spacing 0.07
REM Total runtime: 5859.47 s
REM Overall efficiency: 96.1667 %
REM
REM
REM
REM compiler GCC version 4.9.2
REM options -cpp -iprefix /lustre/shared/ucl/apps/gcc/4.9.2/bin/../lib/gcc/x86_64-unknown-linux-gnu/4.9.2/ -mtune=corei7 -march=x86-64 -g -Og
REM COMMAND_LINE
REM seed 1595042882 320339496 2001004499 -1268250763 173460281 -1567695091 -193917394 1213341740 812754320 1170161924 -128232027 -1590250957
REM
REM S 3|1.8|5|6|7|30:31:32(qc=5)
REM O 2|1.5|12|13|15|20:21(qc=5)
REM Li 1|1.3|8|9|10|10U:20(qc=5)
REM Fe 3|2.2|2.0|1.0|8|9|10|40:41:32(qc=5)
REM Fe d:4.0 
REM
CELL 1.54180    5.93343    5.93343    6.73679   63.87222   63.87222   60.00000
LATT -1
SFAC Li O  S  Fe 
Li     1  0.3701870000000  0.3701870000000 -0.1105600000000 1.0  -0.07
Li     1  0.1456910000000  0.1456910000000 -0.4370720000000 1.0  -0.05
O      2 -0.3342510000000 -0.3342510000000  0.0027520000000 1.0   0.33
O      2  0.2566660000000  0.2566660000000  0.2300010000000 1.0   0.10
S      3  0.0023130000000  0.0023130000000 -0.0069400000000 1.0   0.10
S      3 -0.4998030000000 -0.4998030000000  0.4994090000000 1.0   0.14
Fe     4 -0.4019930000000 -0.1020510000000  0.1810880000000 1.0   3.82
Fe     4 -0.1020510000000  0.3229560000000  0.1810880000000 1.0   3.82
Fe     4  0.3229560000000 -0.4019930000000  0.1810880000000 1.0   3.82
END
