TITL LFSO-Li2Fe3S2O2-201024-023115-cfbc29 0.0322 284.133344 -8.93948510E+003 24.0000 24.2623 18 (R3) n - 1
REM
REM Run started: Sat, 24 Oct 2020 15:29:39 +0100 in /lustre/scratch/uccabz1/launch_tmp/launcher_2020-10-24-01-31-13-891906
REM CASTEP 20.1 from code version af48c487+ pr-geom-scf-spinfix Tue Jun 2 15:39:59 2020 +0100
REM Functional Perdew Burke Ernzerhof Relativity Koelling-Harmon Dispersion off
REM Cut-off 340.0000 eV Grid scale 1.7500 Gmax 16.5316 1/A FBSC none
REM MP grid 3 3 4 Offset 0.000 0.000 0.000 No. kpts 14 Spacing 0.07
REM Total runtime: 48955.1 s
REM Overall efficiency: 97.7778 %
REM
REM
REM
REM compiler GCC version 4.9.2
REM options -cpp -iprefix /lustre/shared/ucl/apps/gcc/4.9.2/bin/../lib/gcc/x86_64-unknown-linux-gnu/4.9.2/ -mtune=corei7 -march=x86-64 -g -Og
REM COMMAND_LINE
REM seed -139814423 -573187585 -1149926962 1415854822 891713975 1155536887 -990404004 1920260474 1316886693 -1441516937 633752926 55653867
REM
REM S 3|1.8|5|6|7|30:31:32(qc=5)
REM O 2|1.5|12|13|15|20:21(qc=5)
REM Li 1|1.3|8|9|10|10U:20(qc=5)
REM Fe 3|2.2|2.0|1.0|8|9|10|40:41:32(qc=5)
REM Fe d:4.0 
REM
CELL 1.54180    9.45321    9.45321    6.57776   44.06319   44.06319   60.00000
LATT -1
SFAC Li O  S  Fe 
Li     1  0.3980890000000  0.0197340000000  0.0507720000000 1.0  -0.09
Li     1  0.0197340000000 -0.4685950000000  0.0507720000000 1.0  -0.09
Li     1 -0.4685950000000  0.3980890000000  0.0507720000000 1.0  -0.09
Li     1 -0.1793910000000 -0.1793910000000 -0.4618270000000 1.0  -0.02
O      2  0.2610620000000 -0.2508030000000 -0.4542400000000 1.0   0.16
O      2 -0.2508030000000 -0.5560190000000 -0.4542400000000 1.0   0.16
O      2 -0.5560190000000  0.2610620000000 -0.4542400000000 1.0   0.16
O      2 -0.0076010000000 -0.0076010000000  0.0228030000000 1.0   0.20
S      3  0.4651020000000 -0.2421070000000 -0.1651920000000 1.0   0.14
S      3 -0.2421070000000 -0.0578030000000 -0.1651920000000 1.0   0.14
S      3 -0.0578030000000  0.4651020000000 -0.1651920000000 1.0   0.14
S      3  0.2682030000000  0.2682030000000  0.1953900000000 1.0   0.16
Fe     4 -0.0802470000000  0.2778670000000 -0.2676650000000 1.0   3.83
Fe     4  0.2778670000000  0.0700440000000 -0.2676650000000 1.0   3.83
Fe     4  0.0700440000000 -0.0802470000000 -0.2676650000000 1.0   3.83
Fe     4  0.3064670000000  0.5289060000000  0.4802880000000 1.0   3.85
Fe     4  0.5289060000000 -0.3156620000000  0.4802880000000 1.0   3.85
Fe     4 -0.3156620000000  0.3064670000000  0.4802880000000 1.0   3.85
END
