TITL LFSO-Li2Fe4S3O2-201026-120424-74cfe2 0.0048 340.427384 -5.62624553E+003 11.4969 12.4497 11 (P4mm) n - 1
REM
REM Run started: Mon, 26 Oct 2020 14:00:51 +0000 in /lustre/scratch/uccabz1/launch_tmp/launcher_2020-10-26-12-04-21-967017
REM CASTEP 20.1 from code version af48c487+ pr-geom-scf-spinfix Tue Jun 2 15:39:59 2020 +0100
REM Functional Perdew Burke Ernzerhof Relativity Koelling-Harmon Dispersion off
REM Cut-off 340.0000 eV Grid scale 1.7500 Gmax 16.5316 1/A FBSC none
REM MP grid 3 3 2 Offset 0.000 0.000 0.000 No. kpts 3 Spacing 0.07
REM Total runtime: 7115.19 s
REM Overall efficiency: 80.7 %
REM
REM
REM
REM compiler GCC version 4.9.2
REM options -cpp -iprefix /lustre/shared/ucl/apps/gcc/4.9.2/bin/../lib/gcc/x86_64-unknown-linux-gnu/4.9.2/ -mtune=corei7 -march=x86-64 -g -Og
REM COMMAND_LINE
REM seed 215758412 1921461739 -370658696 893835665 -831201126 -1455243999 1584599355 1479986261 1658463929 -544870147 -1166816734 1138115560
REM
REM S 3|1.8|5|6|7|30:31:32(qc=5)
REM O 2|1.5|12|13|15|20:21(qc=5)
REM Li 1|1.3|8|9|10|10U:20(qc=5)
REM Fe 3|2.2|2.0|1.0|8|9|10|40:41:32(qc=5)
REM Fe d:4.0 
REM
CELL 1.54180    5.25556    5.25556   12.32500   90.00000   90.00000   90.00000
LATT -1
SFAC Li O  S  Fe 
Li     1  0.0000000000000 -0.5000000000000  0.3243470000000 1.0  -0.09
Li     1 -0.5000000000000 -0.0000000000000  0.3243470000000 1.0  -0.09
O      2  0.5000000000000 -0.0000000000000 -0.5134190000000 1.0  -0.03
O      2  0.0000000000000 -0.5000000000000 -0.5134190000000 1.0  -0.03
S      3  0.0000000000000  0.5000000000000  0.1397910000000 1.0   0.10
S      3  0.5000000000000 -0.0000000000000  0.1397910000000 1.0   0.10
S      3 -0.5000000000000  0.5000000000000  0.1112970000000 1.0  -0.01
Fe     4  0.2447270000000  0.2447270000000 -0.4712240000000 1.0   2.89
Fe     4 -0.2447270000000 -0.2447270000000 -0.4712240000000 1.0   2.89
Fe     4  0.2447270000000 -0.2447270000000 -0.4712240000000 1.0   2.89
Fe     4 -0.2447270000000  0.2447270000000 -0.4712240000000 1.0   2.89
END
