TITL LFSO-Li6FeS3O-201027-110934-52b3b4 0.0127 357.645446 -6.82476109E+003 8.00000 8.25627 22 (P21) n - 1
REM
REM Run started: Tue, 27 Oct 2020 19:56:19 +0000 in /scratch/scratch/uccabz1/launch_tmp/launcher_2020-10-27-11-09-33-215661
REM CASTEP 19.11| from code version Version unavailable
REM Functional Perdew Burke Ernzerhof Relativity Koelling-Harmon Dispersion off
REM Cut-off 340.0000 eV Grid scale 1.7500 Gmax 16.5316 1/A FBSC none
REM MP grid 2 3 3 Offset 0.000 0.000 0.000 No. kpts 6 Spacing 0.07
REM Total runtime: 34939.1 s
REM Overall efficiency: 89.4167 %
REM
REM
REM
REM compiler GCC version 4.9.2
REM options -cpp -iprefix /scratch/UCL/applications/gcc/4.9.2/bin/../lib/gcc/x86_64-unknown-linux-gnu/4.9.2/ -mtune=corei7 -march=x86-64 -g -O2
REM COMMAND_LINE
REM seed -1796101277 1406265460 1058346898 -813016772 701786894 857392716 -356046382 -1176371253 1325753194 -1220253685 -776654797 704634962
REM
REM S 3|1.8|5|6|7|30:31:32(qc=5)
REM O 2|1.5|12|13|15|20:21(qc=5)
REM Li 1|1.3|8|9|10|10U:20(qc=5)
REM Fe 3|2.2|2.0|1.0|8|9|10|40:41:32(qc=5)
REM Fe d:4.0 
REM
CELL 1.54180    7.86799    6.52949    7.00248   90.00000   90.00000   83.80633
LATT -1
SFAC Li O  S  Fe 
Li     1 -0.0629450000000  0.0994680000000 -0.5424580000000 1.0  -0.06
Li     1  0.0629450000000 -0.0994680000000 -0.0424580000000 1.0  -0.06
Li     1  0.0641160000000  0.4672930000000  0.1228180000000 1.0   0.00
Li     1 -0.0641160000000 -0.4672930000000 -0.3771820000000 1.0   0.00
Li     1 -0.5118800000000  0.1678840000000  0.5379520000000 1.0  -0.04
Li     1  0.5118800000000 -0.1678840000000  0.0379520000000 1.0  -0.04
Li     1 -0.2389270000000 -0.2788250000000 -0.6518160000000 1.0   0.00
Li     1  0.2389270000000  0.2788250000000 -0.1518160000000 1.0   0.00
Li     1  0.4369780000000 -0.4959760000000  0.2627160000000 1.0  -0.01
Li     1 -0.4369780000000  0.4959760000000 -0.2372840000000 1.0  -0.01
Li     1 -0.1896820000000  0.2586270000000  0.0699840000000 1.0   0.01
Li     1  0.1896820000000 -0.2586270000000  0.5699840000000 1.0   0.01
O      2 -0.0761490000000 -0.1741960000000 -0.4621570000000 1.0   0.10
O      2  0.0761490000000  0.1741960000000  0.0378430000000 1.0   0.10
S      3  0.2859870000000 -0.3666530000000 -0.0821990000000 1.0   0.03
S      3 -0.2859870000000  0.3666530000000  0.4178010000000 1.0   0.03
S      3  0.5620180000000  0.1442250000000 -0.1257740000000 1.0   0.06
S      3 -0.5620180000000 -0.1442250000000  0.3742260000000 1.0   0.06
S      3 -0.1966590000000 -0.3584720000000 -0.0349920000000 1.0   0.12
S      3  0.1966590000000  0.3584720000000  0.4650080000000 1.0   0.12
Fe     4 -0.2393120000000 -0.0963780000000 -0.2647790000000 1.0   3.77
Fe     4  0.2393120000000  0.0963780000000  0.2352210000000 1.0   3.77
END
