TITL LFSO-Li2Fe4S4O-201024-212958-475700 0.0282 234.760273 -5.49930009E+003 15.9507 16.3127 11 (Imm2) n - 1
REM
REM Run started: Sat, 24 Oct 2020 23:52:55 +0100 in /lustre/scratch/uccabz1/launch_tmp/launcher_2020-10-24-20-29-57-057806
REM CASTEP 20.1 from code version af48c487+ pr-geom-scf-spinfix Tue Jun 2 15:39:59 2020 +0100
REM Functional Perdew Burke Ernzerhof Relativity Koelling-Harmon Dispersion off
REM Cut-off 340.0000 eV Grid scale 1.7500 Gmax 16.5316 1/A FBSC none
REM MP grid 3 4 3 Offset 0.000 0.000 0.000 No. kpts 12 Spacing 0.07
REM Total runtime: 9283.36 s
REM Overall efficiency: 85 %
REM
REM
REM
REM compiler GCC version 4.9.2
REM options -cpp -iprefix /lustre/shared/ucl/apps/gcc/4.9.2/bin/../lib/gcc/x86_64-unknown-linux-gnu/4.9.2/ -mtune=corei7 -march=x86-64 -g -Og
REM COMMAND_LINE
REM seed -499764387 -682132336 973838093 1572030711 143812956 -443254605 -2045030623 1393397216 257411073 -478624898 -1173089340 602445863
REM
REM S 3|1.8|5|6|7|30:31:32(qc=5)
REM O 2|1.5|12|13|15|20:21(qc=5)
REM Li 1|1.3|8|9|10|10U:20(qc=5)
REM Fe 3|2.2|2.0|1.0|8|9|10|40:41:32(qc=5)
REM Fe d:4.0 
REM
CELL 1.54180    9.03678    4.59689    7.59181  107.62306  126.52445   90.00000
LATT -1
SFAC Li O  S  Fe 
Li     1 -0.1276470000000 -0.4356150000000 -0.2552930000000 1.0  -0.10
Li     1  0.1276470000000 -0.1803210000000  0.2552930000000 1.0  -0.10
O      2  0.5000000000000  0.1484520000000  0.0000000000000 1.0   0.20
S      3  0.0942810000000  0.4984440000000 -0.2995680000000 1.0   0.20
S      3 -0.0942810000000 -0.2019890000000  0.2995680000000 1.0   0.20
S      3 -0.3938490000000  0.4984440000000 -0.2995680000000 1.0   0.20
S      3  0.3938490000000 -0.2019890000000  0.2995680000000 1.0   0.20
Fe     4  0.4781790000000  0.2873130000000  0.2765530000000 1.0   3.79
Fe     4 -0.4781790000000  0.0107600000000 -0.2765530000000 1.0   3.79
Fe     4 -0.2016260000000  0.2873130000000  0.2765530000000 1.0   3.79
Fe     4  0.2016260000000  0.0107600000000 -0.2765530000000 1.0   3.79
END
