TITL LFSO-Li5FeS2O2-201026-210244-a286dd -0.0269 186.099904 -3.33919180E+003 4.36247 4.84461 10 (P3) n - 1
REM
REM Run started: Mon, 26 Oct 2020 22:22:50 +0000 in /scratch/scratch/uccabz1/launch_tmp/launcher_2020-10-26-21-02-42-455268
REM CASTEP 19.11| from code version Version unavailable
REM Functional Perdew Burke Ernzerhof Relativity Koelling-Harmon Dispersion off
REM Cut-off 340.0000 eV Grid scale 1.7500 Gmax 16.5316 1/A FBSC none
REM MP grid 4 4 2 Offset 0.000 0.000 0.000 No. kpts 16 Spacing 0.07
REM Total runtime: 8043.13 s
REM Overall efficiency: 88.3333 %
REM
REM
REM
REM compiler GCC version 4.9.2
REM options -cpp -iprefix /scratch/UCL/applications/gcc/4.9.2/bin/../lib/gcc/x86_64-unknown-linux-gnu/4.9.2/ -mtune=corei7 -march=x86-64 -g -O2
REM COMMAND_LINE
REM seed 1447652402 -1888119893 647854378 48727439 660637373 689872733 1666405669 -417129455 1276765350 -2050195703 1888245947 -168449422
REM
REM S 3|1.8|5|6|7|30:31:32(qc=5)
REM O 2|1.5|12|13|15|20:21(qc=5)
REM Li 1|1.3|8|9|10|10U:20(qc=5)
REM Fe 3|2.2|2.0|1.0|8|9|10|40:41:32(qc=5)
REM Fe d:4.0 
REM
CELL 1.54180    4.34751    4.34751   11.36932   90.00000   90.00000  120.00000
LATT -1
SFAC Li O  S  Fe 
Li     1  0.3623280000000  0.2944880000000  0.0730710000000 1.0  -0.02
Li     1 -0.0678410000000 -0.3623280000000  0.0730710000000 1.0  -0.02
Li     1 -0.2944880000000  0.0678410000000  0.0730710000000 1.0  -0.02
Li     1  0.3333330000000 -0.3333330000000 -0.3835090000000 1.0  -0.03
Li     1 -0.3333330000000  0.3333330000000  0.4405410000000 1.0   0.01
O      2  0.3333330000000 -0.3333330000000  0.0351370000000 1.0   0.26
O      2 -0.3333330000000  0.3333330000000 -0.0695900000000 1.0   0.32
S      3 -0.3333330000000  0.3333330000000 -0.3558230000000 1.0   0.00
S      3 -0.3333330000000  0.3333330000000  0.2428910000000 1.0  -0.19
Fe     4  0.3333330000000 -0.3333330000000 -0.1326280000000 1.0   4.06
END
