TITL LFSO-Li5FeS2O2-201025-125547-5b8b32 -0.0334 176.780918 -3.34079958E+003 5.00000 5.01506 10 (P3) n - 1
REM
REM Run started: Sun, 25 Oct 2020 14:25:39 +0000 in /lustre/scratch/uccabz1/launch_tmp/launcher_2020-10-25-12-55-45-481762
REM CASTEP 20.1 from code version af48c487+ pr-geom-scf-spinfix Tue Jun 2 15:39:59 2020 +0100
REM Functional Perdew Burke Ernzerhof Relativity Koelling-Harmon Dispersion off
REM Cut-off 340.0000 eV Grid scale 1.7500 Gmax 16.5316 1/A FBSC none
REM MP grid 5 5 2 Offset 0.000 0.000 0.000 No. kpts 9 Spacing 0.07
REM Total runtime: 3469.01 s
REM Overall efficiency: 83.25 %
REM
REM
REM
REM compiler GCC version 4.9.2
REM options -cpp -iprefix /lustre/shared/ucl/apps/gcc/4.9.2/bin/../lib/gcc/x86_64-unknown-linux-gnu/4.9.2/ -mtune=corei7 -march=x86-64 -g -Og
REM COMMAND_LINE
REM seed 573479018 1588838102 -1198847717 -192503133 -1276582213 -1611104279 1241890020 1940071225 -752473770 4209196 -1679005357 -1905343481
REM
REM S 3|1.8|5|6|7|30:31:32(qc=5)
REM O 2|1.5|12|13|15|20:21(qc=5)
REM Li 1|1.3|8|9|10|10U:20(qc=5)
REM Fe 3|2.2|2.0|1.0|8|9|10|40:41:32(qc=5)
REM Fe d:4.0 
REM
CELL 1.54180    4.10204    4.10204   12.13124   90.00000   90.00000  120.00000
LATT -1
SFAC Li O  S  Fe 
Li     1  0.3419590000000  0.0080670000000  0.1940790000000 1.0  -0.00
Li     1 -0.3338910000000 -0.3419590000000  0.1940790000000 1.0  -0.00
Li     1 -0.0080670000000  0.3338910000000  0.1940790000000 1.0  -0.00
Li     1  0.3333330000000 -0.3333330000000 -0.0418060000000 1.0   0.00
Li     1  0.3333330000000 -0.3333330000000  0.4288470000000 1.0   0.02
O      2 -0.3333330000000  0.3333330000000  0.2839030000000 1.0   0.01
O      2  0.3333330000000 -0.3333330000000 -0.1978060000000 1.0   0.84
S      3 -0.0000000000000  0.0000000000000  0.0519150000000 1.0   0.00
S      3 -0.0000000000000  0.0000000000000 -0.4348760000000 1.0   0.20
Fe     4  0.3333330000000 -0.3333330000000 -0.3394980000000 1.0   3.94
END
