TITL LFSO-Li4Fe3S3O2-201029-042400-106266 0.0091 218.682008 -5.17400270E+003 -12.0000 12.1258 12 (P2) n - 1
REM
REM Run started: Thu, 29 Oct 2020 11:08:21 +0000 in /lustre/scratch/uccabz1/launch_tmp/launcher_2020-10-29-04-23-59-093526
REM CASTEP 20.1 from code version af48c487+ pr-geom-scf-spinfix Tue Jun 2 15:39:59 2020 +0100
REM Functional Perdew Burke Ernzerhof Relativity Koelling-Harmon Dispersion off
REM Cut-off 340.0000 eV Grid scale 1.7500 Gmax 16.5316 1/A FBSC none
REM MP grid 4 3 2 Offset 0.000 0.000 0.000 No. kpts 8 Spacing 0.07
REM Total runtime: 25803 s
REM Overall efficiency: 94.8462 %
REM
REM
REM
REM compiler GCC version 4.9.2
REM options -cpp -iprefix /lustre/shared/ucl/apps/gcc/4.9.2/bin/../lib/gcc/x86_64-unknown-linux-gnu/4.9.2/ -mtune=corei7 -march=x86-64 -g -Og
REM COMMAND_LINE
REM seed 395182129 -1498075656 -752885165 -1518301591 531584211 -1882130975 848584924 241640745 -257144843 -1752477473 1578351214 602825936
REM
REM S 3|1.8|5|6|7|30:31:32(qc=5)
REM O 2|1.5|12|13|15|20:21(qc=5)
REM Li 1|1.3|8|9|10|10U:20(qc=5)
REM Fe 3|2.2|2.0|1.0|8|9|10|40:41:32(qc=5)
REM Fe d:4.0 
REM
CELL 1.54180    3.88516    6.03166    9.34512   90.00000   93.05461   90.00000
LATT -1
SFAC Li O  S  Fe 
Li     1  0.4731590000000  0.1418080000000 -0.1552470000000 1.0   0.00
Li     1 -0.4731590000000  0.1418080000000  0.1552470000000 1.0   0.00
Li     1  0.1742170000000 -0.0436500000000  0.3498950000000 1.0   0.01
Li     1 -0.1742170000000 -0.0436500000000 -0.3498950000000 1.0   0.01
O      2  0.2964080000000  0.2545230000000  0.3265010000000 1.0  -0.16
O      2 -0.2964080000000  0.2545230000000 -0.3265010000000 1.0  -0.16
S      3 -0.6554220000000 -0.2569540000000 -0.2837590000000 1.0  -0.07
S      3  0.6554220000000 -0.2569540000000  0.2837590000000 1.0  -0.07
S      3  0.0000000000000  0.2737060000000  0.0000000000000 1.0  -0.06
Fe     4  0.1240650000000 -0.4869990000000  0.2075360000000 1.0  -3.83
Fe     4 -0.1240650000000 -0.4869990000000 -0.2075360000000 1.0  -3.83
Fe     4  0.5000000000000  0.3770960000000 -0.5000000000000 1.0  -3.84
END
