TITL LFSO-Li4Fe3S3O2-201029-185254-7671d6 -0.0266 217.100226 -5.16799092E+003 11.1802 11.3653 12 (Pmm2) n - 1
REM
REM Run started: Thu, 29 Oct 2020 20:48:30 +0000 in /lustre/scratch/uccabz1/launch_tmp/launcher_2020-10-29-18-52-53-078686
REM CASTEP 20.1 from code version af48c487+ pr-geom-scf-spinfix Tue Jun 2 15:39:59 2020 +0100
REM Functional Perdew Burke Ernzerhof Relativity Koelling-Harmon Dispersion off
REM Cut-off 340.0000 eV Grid scale 1.7500 Gmax 16.5316 1/A FBSC none
REM MP grid 5 2 2 Offset 0.000 0.000 0.000 No. kpts 3 Spacing 0.07
REM Total runtime: 6981.64 s
REM Overall efficiency: 80.6364 %
REM
REM
REM
REM compiler GCC version 4.9.2
REM options -cpp -iprefix /lustre/shared/ucl/apps/gcc/4.9.2/bin/../lib/gcc/x86_64-unknown-linux-gnu/4.9.2/ -mtune=corei7 -march=x86-64 -g -Og
REM COMMAND_LINE
REM seed 812598122 873173425 -1900004485 443747638 -767053294 -458728809 1732677153 -506566675 -286317852 432470118 -1764094907 204173346
REM
REM S 3|1.8|5|6|7|30:31:32(qc=5)
REM O 2|1.5|12|13|15|20:21(qc=5)
REM Li 1|1.3|8|9|10|10U:20(qc=5)
REM Fe 3|2.2|2.0|1.0|8|9|10|40:41:32(qc=5)
REM Fe d:4.0 
REM
CELL 1.54180    3.10712    9.16620    7.62276   90.00000   90.00000   90.00000
LATT -1
SFAC Li O  S  Fe 
Li     1  0.4729590000000 -0.3151730000000  0.3425510000000 1.0  -0.03
Li     1  0.4729590000000  0.3151730000000 -0.3425510000000 1.0  -0.03
Li     1  0.4729590000000  0.3151730000000  0.3425510000000 1.0  -0.03
Li     1  0.4729590000000 -0.3151730000000 -0.3425510000000 1.0  -0.03
O      2  0.6607240000000  0.1559550000000 -0.5000000000000 1.0   0.19
O      2  0.6607240000000 -0.1559550000000  0.5000000000000 1.0   0.19
S      3 -0.2327550000000  0.5000000000000 -0.1308860000000 1.0   0.01
S      3 -0.2327550000000  0.5000000000000  0.1308860000000 1.0   0.01
S      3  0.0607940000000  0.5000000000000  0.5000000000000 1.0   0.01
Fe     4 -0.2541780000000  0.0000000000000 -0.3208140000000 1.0   3.85
Fe     4 -0.2541780000000  0.0000000000000  0.3208140000000 1.0   3.85
Fe     4  0.2476240000000  0.0000000000000  0.0000000000000 1.0   3.19
END
