TITL LFSO-Li4Fe3S4O-201021-221630-c362c9 0.0547 484.943352 -1.00793355E+004 24.0000 24.2471 24 (P21) n - 1
REM
REM Run started: Thu, 22 Oct 2020 08:59:24 +0100 in /lustre/scratch/uccabz1/launch_tmp/launcher_2020-10-21-23-11-35-465958
REM CASTEP 20.1 from code version af48c487+ pr-geom-scf-spinfix Tue Jun 2 15:39:59 2020 +0100
REM Functional Perdew Burke Ernzerhof Relativity Koelling-Harmon Dispersion off
REM Cut-off 340.0000 eV Grid scale 1.7500 Gmax 16.5316 1/A FBSC none
REM MP grid 3 2 2 Offset 0.000 0.000 0.000 No. kpts 3 Spacing 0.07
REM Total runtime: 39957.9 s
REM Overall efficiency: 78.5385 %
REM
REM
REM
REM compiler GCC version 4.9.2
REM options -cpp -iprefix /scratch/UCL/applications/gcc/4.9.2/bin/../lib/gcc/x86_64-unknown-linux-gnu/4.9.2/ -mtune=corei7 -march=x86-64 -g -O2
REM COMMAND_LINE
REM seed 827232316 -227800000 1528438025 -1779932424 1671743893 1713509663 -315908980 -513130940 -465455785 -1185594890 1645070270 1431173196
REM
REM S 3|1.8|5|6|7|30:31:32(qc=5)
REM O 2|1.5|12|13|15|20:21(qc=5)
REM Li 1|1.3|8|9|10|10U:20(qc=5)
REM Fe 3|2.2|2.0|1.0|8|9|10|40:41:32(qc=5)
REM Fe d:4.0 
REM
CELL 1.54180    6.88300    7.77302    9.80261   90.00000   67.61709   90.00000
LATT -1
SFAC Li O  S  Fe 
Li     1 -0.4006370000000 -0.2665840000000  0.1845360000000 1.0  -0.00
Li     1  0.4006370000000  0.2334160000000 -0.1845360000000 1.0  -0.00
Li     1  0.5012220000000  0.1106840000000  0.2653450000000 1.0   0.01
Li     1 -0.5012220000000 -0.3893160000000 -0.2653450000000 1.0   0.01
Li     1 -0.4307960000000  0.4639650000000  0.4014960000000 1.0   0.03
Li     1  0.4307960000000 -0.0360350000000 -0.4014960000000 1.0   0.03
Li     1 -0.1390060000000 -0.0621690000000  0.2564870000000 1.0  -0.03
Li     1  0.1390060000000  0.4378310000000 -0.2564870000000 1.0  -0.03
O      2  0.3038260000000 -0.5476850000000 -0.1437150000000 1.0   0.14
O      2 -0.3038260000000 -0.0476850000000  0.1437150000000 1.0   0.14
S      3  0.3419340000000 -0.3121740000000 -0.4529260000000 1.0   0.15
S      3 -0.3419340000000  0.1878260000000  0.4529260000000 1.0   0.15
S      3 -0.1407890000000  0.5136900000000 -0.3469680000000 1.0   0.19
S      3  0.1407890000000  0.0136900000000  0.3469680000000 1.0   0.19
S      3 -0.0940280000000  0.5914270000000  0.2505970000000 1.0   0.15
S      3  0.0940280000000  0.0914270000000 -0.2505970000000 1.0   0.15
S      3  0.3856130000000  0.4414380000000  0.2172500000000 1.0   0.19
S      3 -0.3856130000000 -0.0585620000000 -0.2172500000000 1.0   0.19
Fe     4  0.1102540000000 -0.3845520000000  0.4135340000000 1.0   3.76
Fe     4 -0.1102540000000  0.1154480000000 -0.4135340000000 1.0   3.76
Fe     4 -0.0208670000000 -0.2108160000000 -0.3130870000000 1.0   3.67
Fe     4  0.0208670000000  0.2891840000000  0.3130870000000 1.0   3.67
Fe     4  0.2161800000000 -0.4878770000000  0.0523580000000 1.0   3.75
Fe     4 -0.2161800000000  0.0121230000000 -0.0523580000000 1.0   3.75
END
