TITL LFSO-Li4Fe2S3O-201026-224606-57852a 0.0052 230.453887 -3.87224651E+003 8.00002 8.14947 10 (R3) n - 1
REM
REM Run started: Tue, 27 Oct 2020 01:09:34 +0000 in /lustre/scratch/uccabz1/launch_tmp/launcher_2020-10-26-22-46-04-860309
REM CASTEP 20.1 from code version af48c487+ pr-geom-scf-spinfix Tue Jun 2 15:39:59 2020 +0100
REM Functional Perdew Burke Ernzerhof Relativity Koelling-Harmon Dispersion off
REM Cut-off 340.0000 eV Grid scale 1.7500 Gmax 16.5316 1/A FBSC none
REM MP grid 3 3 3 Offset 0.000 0.000 0.000 No. kpts 6 Spacing 0.07
REM Total runtime: 9087.78 s
REM Overall efficiency: 86.3636 %
REM
REM
REM
REM compiler GCC version 4.9.2
REM options -cpp -iprefix /lustre/shared/ucl/apps/gcc/4.9.2/bin/../lib/gcc/x86_64-unknown-linux-gnu/4.9.2/ -mtune=corei7 -march=x86-64 -g -Og
REM COMMAND_LINE
REM seed 1672659023 -1321374024 1453131045 1945901606 1126978610 -573570804 1461230417 958428843 1582318338 1892408950 1336583968 -66092044
REM
REM S 3|1.8|5|6|7|30:31:32(qc=5)
REM O 2|1.5|12|13|15|20:21(qc=5)
REM Li 1|1.3|8|9|10|10U:20(qc=5)
REM Fe 3|2.2|2.0|1.0|8|9|10|40:41:32(qc=5)
REM Fe d:4.0 
REM
CELL 1.54180    6.80733    6.80733    6.95864   60.71674   60.71674   60.00000
LATT -1
SFAC Li O  S  Fe 
Li     1  0.1936720000000 -0.3603720000000 -0.2755000000000 1.0  -0.03
Li     1 -0.3603720000000  0.4422000000000 -0.2755000000000 1.0  -0.03
Li     1  0.4422000000000  0.1936720000000 -0.2755000000000 1.0  -0.03
Li     1 -0.0261430000000 -0.0261430000000  0.0784300000000 1.0   0.03
O      2 -0.5175850000000 -0.5175850000000  0.5527540000000 1.0   0.08
S      3 -0.3494440000000 -0.0053660000000  0.0181780000000 1.0   0.09
S      3 -0.0053660000000  0.3366320000000  0.0181780000000 1.0   0.09
S      3  0.3366320000000 -0.3494440000000  0.0181780000000 1.0   0.09
Fe     4 -0.4042960000000 -0.4042960000000  0.2128870000000 1.0   3.92
Fe     4  0.2884340000000  0.2884340000000  0.1346980000000 1.0   3.79
END
