TITL LFSO-Li4Fe3S4O-201029-035137-3f5fcb 0.0207 548.365518 -1.00799596E+004 24.0000 24.3439 24 (P21) n - 1
REM
REM Run started: Thu, 29 Oct 2020 14:22:06 +0000 in /lustre/scratch/uccabz1/launch_tmp/launcher_2020-10-29-03-51-35-228675
REM CASTEP 20.1 from code version af48c487+ pr-geom-scf-spinfix Tue Jun 2 15:39:59 2020 +0100
REM Functional Perdew Burke Ernzerhof Relativity Koelling-Harmon Dispersion off
REM Cut-off 340.0000 eV Grid scale 1.7500 Gmax 16.5316 1/A FBSC none
REM MP grid 3 2 2 Offset 0.000 0.000 0.000 No. kpts 3 Spacing 0.07
REM Total runtime: 38463.7 s
REM Overall efficiency: 75.8182 %
REM
REM
REM
REM compiler GCC version 4.9.2
REM options -cpp -iprefix /lustre/shared/ucl/apps/gcc/4.9.2/bin/../lib/gcc/x86_64-unknown-linux-gnu/4.9.2/ -mtune=corei7 -march=x86-64 -g -Og
REM COMMAND_LINE
REM seed 1293742773 2082752275 -914918890 -1209461856 1499513448 1477125183 1256243182 -1537695022 1536367564 -149218837 1799185359 600882888
REM
REM S 3|1.8|5|6|7|30:31:32(qc=5)
REM O 2|1.5|12|13|15|20:21(qc=5)
REM Li 1|1.3|8|9|10|10U:20(qc=5)
REM Fe 3|2.2|2.0|1.0|8|9|10|40:41:32(qc=5)
REM Fe d:4.0 
REM
CELL 1.54180    6.95428    7.26899   10.85909   90.00000   90.00000   92.60589
LATT -1
SFAC Li O  S  Fe 
Li     1  0.2377580000000 -0.0107770000000  0.0596700000000 1.0  -0.01
Li     1 -0.2377580000000  0.0107770000000 -0.4403300000000 1.0  -0.01
Li     1 -0.4093090000000 -0.2138570000000 -0.0560670000000 1.0  -0.04
Li     1  0.4093090000000  0.2138570000000  0.4439330000000 1.0  -0.04
Li     1  0.0109550000000 -0.1838760000000  0.4252430000000 1.0  -0.01
Li     1 -0.0109550000000  0.1838760000000 -0.0747570000000 1.0  -0.01
Li     1  0.4139310000000  0.3120540000000 -0.0406570000000 1.0  -0.02
Li     1 -0.4139310000000 -0.3120540000000  0.4593430000000 1.0  -0.02
O      2  0.2464740000000  0.1194820000000 -0.0912400000000 1.0   0.13
O      2 -0.2464740000000 -0.1194820000000  0.4087600000000 1.0   0.13
S      3  0.2333570000000  0.5672550000000  0.4267630000000 1.0   0.12
S      3 -0.2333570000000 -0.5672550000000 -0.0732370000000 1.0   0.12
S      3 -0.5789950000000  0.1641270000000  0.2215920000000 1.0   0.13
S      3  0.5789950000000 -0.1641270000000 -0.2784080000000 1.0   0.13
S      3  0.3074970000000 -0.3695060000000  0.0482290000000 1.0   0.12
S      3 -0.3074970000000  0.3695060000000  0.5482290000000 1.0   0.12
S      3 -0.1419460000000 -0.0657470000000  0.0670500000000 1.0   0.13
S      3  0.1419460000000  0.0657470000000 -0.4329500000000 1.0   0.13
Fe     4 -0.3116160000000  0.5388010000000 -0.2684150000000 1.0   3.81
Fe     4  0.3116160000000 -0.5388010000000  0.2315850000000 1.0   3.81
Fe     4 -0.0211670000000 -0.3515720000000  0.0241920000000 1.0   3.79
Fe     4  0.0211670000000  0.3515720000000 -0.4758080000000 1.0   3.79
Fe     4  0.2940140000000  0.0036260000000 -0.2421260000000 1.0   3.83
Fe     4 -0.2940140000000 -0.0036260000000  0.2578740000000 1.0   3.83
END
