TITL LFSO-Li4Fe3S4O-201030-021011-b1d80c 0.0524 477.242490 -1.00780373E+004 -24.0000 24.4289 24 (P3) n - 1
REM
REM Run started: Fri, 30 Oct 2020 09:44:15 +0000 in /scratch/scratch/uccabz1/launch_tmp/launcher_2020-10-30-02-10-09-851170
REM CASTEP 19.11| from code version Version unavailable
REM Functional Perdew Burke Ernzerhof Relativity Koelling-Harmon Dispersion off
REM Cut-off 340.0000 eV Grid scale 1.7500 Gmax 16.5316 1/A FBSC none
REM MP grid 3 3 2 Offset 0.000 0.000 0.000 No. kpts 5 Spacing 0.07
REM Total runtime: 27327 s
REM Overall efficiency: 74.8 %
REM
REM
REM
REM compiler GCC version 4.9.2
REM options -cpp -iprefix /scratch/UCL/applications/gcc/4.9.2/bin/../lib/gcc/x86_64-unknown-linux-gnu/4.9.2/ -mtune=corei7 -march=x86-64 -g -O2
REM COMMAND_LINE
REM seed 539209365 1038292373 202949227 -1456518323 1104562077 -972903823 -1355153113 2127803012 -407025979 1380850263 272244546 -153562706
REM
REM S 3|1.8|5|6|7|30:31:32(qc=5)
REM O 2|1.5|12|13|15|20:21(qc=5)
REM Li 1|1.3|8|9|10|10U:20(qc=5)
REM Fe 3|2.2|2.0|1.0|8|9|10|40:41:32(qc=5)
REM Fe d:4.0 
REM
CELL 1.54180    7.30431    7.30431   10.32880   90.00000   90.00000  120.00000
LATT -1
SFAC Li O  S  Fe 
Li     1  0.3233980000000  0.3267380000000 -0.3763170000000 1.0   0.01
Li     1  0.0033400000000 -0.3233980000000 -0.3763170000000 1.0   0.01
Li     1 -0.3267380000000 -0.0033400000000 -0.3763170000000 1.0   0.01
Li     1 -0.3009740000000 -0.4233040000000 -0.1565130000000 1.0   0.01
Li     1 -0.1223300000000  0.3009740000000 -0.1565130000000 1.0   0.01
Li     1  0.4233040000000  0.1223300000000 -0.1565130000000 1.0   0.01
Li     1 -0.3333330000000  0.3333330000000  0.0812870000000 1.0   0.06
Li     1 -0.0000000000000  0.0000000000000  0.2960480000000 1.0   0.18
O      2  0.3333330000000 -0.3333330000000 -0.6328390000000 1.0  -0.27
O      2 -0.3333330000000  0.3333330000000 -0.0933990000000 1.0  -0.04
S      3 -0.0054620000000  0.3353240000000 -0.3836710000000 1.0  -0.10
S      3  0.3407860000000  0.0054620000000 -0.3836710000000 1.0  -0.10
S      3 -0.3353240000000 -0.3407860000000 -0.3836710000000 1.0  -0.10
S      3 -0.1089450000000  0.2297820000000  0.2102970000000 1.0  -0.11
S      3  0.3387260000000  0.1089450000000  0.2102970000000 1.0  -0.11
S      3 -0.2297820000000 -0.3387260000000  0.2102970000000 1.0  -0.11
S      3 -0.0000000000000  0.0000000000000 -0.0719550000000 1.0  -0.09
S      3  0.3333330000000 -0.3333330000000 -0.0091410000000 1.0  -0.03
Fe     4  0.2016530000000  0.3113860000000  0.0768700000000 1.0  -3.93
Fe     4  0.1097330000000 -0.2016530000000  0.0768700000000 1.0  -3.93
Fe     4 -0.3113860000000 -0.1097330000000  0.0768700000000 1.0  -3.93
Fe     4  0.0604510000000 -0.5813410000000  0.4034170000000 1.0  -3.81
Fe     4  0.3582080000000 -0.0604510000000  0.4034170000000 1.0  -3.81
Fe     4  0.5813410000000 -0.3582080000000  0.4034170000000 1.0  -3.81
END
