TITL LFSO-Li3FeS2O-201023-011258-dd04d1 -0.0190 552.841872 -7.51880184E+003 9.00310 11.5352 21 (Pm) n - 1
REM
REM Run started: Fri, 23 Oct 2020 14:37:48 +0100 in /lustre/scratch/uccabz1/launch_tmp/launcher_2020-10-23-00-12-56-648240
REM CASTEP 20.1 from code version af48c487+ pr-geom-scf-spinfix Tue Jun 2 15:39:59 2020 +0100
REM Functional Perdew Burke Ernzerhof Relativity Koelling-Harmon Dispersion off
REM Cut-off 340.0000 eV Grid scale 1.7500 Gmax 16.5316 1/A FBSC none
REM MP grid 2 3 3 Offset 0.000 0.000 0.000 No. kpts 5 Spacing 0.07
REM Total runtime: 53955.6 s
REM Overall efficiency: 71 %
REM
REM
REM
REM compiler GCC version 4.9.2
REM options -cpp -iprefix /lustre/shared/ucl/apps/gcc/4.9.2/bin/../lib/gcc/x86_64-unknown-linux-gnu/4.9.2/ -mtune=corei7 -march=x86-64 -g -Og
REM COMMAND_LINE
REM seed 368142212 1947433575 -759346216 275958030 741908960 -1934491037 -1633066413 -1884726862 889355293 -597386686 -1424471825 1748341953
REM
REM S 3|1.8|5|6|7|30:31:32(qc=5)
REM O 2|1.5|12|13|15|20:21(qc=5)
REM Li 1|1.3|8|9|10|10U:20(qc=5)
REM Fe 3|2.2|2.0|1.0|8|9|10|40:41:32(qc=5)
REM Fe d:4.0 
REM
CELL 1.54180    8.63311   11.10899   10.99877  148.39225   90.00000   90.00000
LATT -1
SFAC Li O  S  Fe 
Li     1 -0.3485600000000 -0.3136290000000 -0.2727150000000 1.0  -0.03
Li     1  0.3485600000000 -0.3136290000000 -0.2727150000000 1.0  -0.03
Li     1 -0.2802300000000 -0.3943330000000  0.2539850000000 1.0   0.01
Li     1  0.2802300000000 -0.3943330000000  0.2539850000000 1.0   0.01
Li     1 -0.2736420000000  0.5004490000000 -0.1096040000000 1.0  -0.01
Li     1  0.2736420000000  0.5004490000000 -0.1096040000000 1.0  -0.01
Li     1  0.2158450000000 -0.0639820000000  0.2949660000000 1.0  -0.01
Li     1 -0.2158450000000 -0.0639820000000  0.2949660000000 1.0  -0.01
Li     1 -0.5000000000000 -0.2277170000000  0.2450560000000 1.0  -0.00
O      2 -0.2984310000000 -0.2967850000000  0.1846430000000 1.0   0.01
O      2  0.2984310000000 -0.2967850000000  0.1846430000000 1.0   0.01
O      2  0.5000000000000 -0.0656780000000 -0.0134480000000 1.0   0.16
S      3 -0.2470250000000  0.3123050000000 -0.4614240000000 1.0  -0.07
S      3  0.2470250000000  0.3123050000000 -0.4614240000000 1.0  -0.07
S      3 -0.1216210000000 -0.1545420000000  0.0015940000000 1.0  -0.11
S      3  0.1216210000000 -0.1545420000000  0.0015940000000 1.0  -0.11
S      3  0.3335630000000  0.4878270000000  0.3608130000000 1.0  -0.39
S      3 -0.3335630000000  0.4878270000000  0.3608130000000 1.0  -0.39
Fe     4  0.3268560000000  0.1642170000000  0.2065870000000 1.0   3.76
Fe     4 -0.3268560000000  0.1642170000000  0.2065870000000 1.0   3.76
Fe     4  0.0000000000000  0.4997540000000 -0.3091840000000 1.0   2.54
END
