TITL LFSO-Li6FeS3O-201027-172831-0599c3 0.0421 155.112324 -3.40663305E+003 3.48504 3.53555 11 (Pmmm) n - 1
REM
REM Run started: Tue, 27 Oct 2020 17:49:49 +0000 in /scratch/scratch/uccabz1/launch_tmp/launcher_2020-10-27-17-28-30-282318
REM CASTEP 19.11| from code version Version unavailable
REM Functional Perdew Burke Ernzerhof Relativity Koelling-Harmon Dispersion off
REM Cut-off 340.0000 eV Grid scale 1.7500 Gmax 16.5316 1/A FBSC none
REM MP grid 4 3 2 Offset 0.000 0.000 0.000 No. kpts 6 Spacing 0.07
REM Total runtime: 1408.91 s
REM Overall efficiency: 75.5 %
REM
REM
REM
REM compiler GCC version 4.9.2
REM options -cpp -iprefix /scratch/UCL/applications/gcc/4.9.2/bin/../lib/gcc/x86_64-unknown-linux-gnu/4.9.2/ -mtune=corei7 -march=x86-64 -g -O2
REM COMMAND_LINE
REM seed 831266305 -120551874 -269855124 -182959651 -335362209 356713053 -541033650 1103357672 -1549895126 -717593006 1166513182 113620610
REM
REM S 3|1.8|5|6|7|30:31:32(qc=5)
REM O 2|1.5|12|13|15|20:21(qc=5)
REM Li 1|1.3|8|9|10|10U:20(qc=5)
REM Fe 3|2.2|2.0|1.0|8|9|10|40:41:32(qc=5)
REM Fe d:4.0 
REM
CELL 1.54180    3.65907    5.47084    7.74869   90.00000   90.00000   90.32518
LATT -1
SFAC Li O  S  Fe 
Li     1 -0.4967480000000 -0.2119190000000  0.3267390000000 1.0  -0.01
Li     1  0.4967480000000  0.2119190000000  0.3267390000000 1.0  -0.01
Li     1  0.4967480000000  0.2119190000000 -0.3267390000000 1.0  -0.01
Li     1 -0.4967480000000 -0.2119190000000 -0.3267390000000 1.0  -0.01
Li     1  0.0000000000000  0.5000000000000  0.3668180000000 1.0  -0.02
Li     1  0.0000000000000 -0.5000000000000 -0.3668180000000 1.0  -0.02
O      2  0.5000000000000  0.5000000000000  0.5000000000000 1.0   0.01
S      3 -0.0000000000000 -0.0000000000000  0.1449410000000 1.0   0.01
S      3  0.0000000000000  0.0000000000000 -0.1449410000000 1.0   0.01
S      3  0.0000000000000 -0.0000000000000  0.5000000000000 1.0   0.00
Fe     4  0.0000000000000 -0.5000000000000  0.0000000000000 1.0   3.51
END
