TITL LFSO-Li2Fe4S4O-201023-072344-098365 -0.0000 345.632671 -5.50056525E+003 -16.0000 16.1640 11 (Pm) n - 1
REM
REM Run started: Fri, 23 Oct 2020 17:33:12 +0100 in /lustre/scratch/uccabz1/launch_tmp/launcher_2020-10-23-06-23-42-718719
REM CASTEP 20.1 from code version af48c487+ pr-geom-scf-spinfix Tue Jun 2 15:39:59 2020 +0100
REM Functional Perdew Burke Ernzerhof Relativity Koelling-Harmon Dispersion off
REM Cut-off 340.0000 eV Grid scale 1.7500 Gmax 16.5316 1/A FBSC none
REM MP grid 3 4 2 Offset 0.000 0.000 0.000 No. kpts 6 Spacing 0.07
REM Total runtime: 39467.3 s
REM Overall efficiency: 86.0833 %
REM
REM
REM
REM compiler GCC version 4.9.2
REM options -cpp -iprefix /lustre/shared/ucl/apps/gcc/4.9.2/bin/../lib/gcc/x86_64-unknown-linux-gnu/4.9.2/ -mtune=corei7 -march=x86-64 -g -Og
REM COMMAND_LINE
REM seed -1005518857 -1133204292 970801558 308369607 -916847084 1651312631 -339958558 -1741364948 -1203500737 -491363977 -1925894308 -305324820
REM
REM S 3|1.8|5|6|7|30:31:32(qc=5)
REM O 2|1.5|12|13|15|20:21(qc=5)
REM Li 1|1.3|8|9|10|10U:20(qc=5)
REM Fe 3|2.2|2.0|1.0|8|9|10|40:41:32(qc=5)
REM Fe d:4.0 
REM
CELL 1.54180    6.91739    4.26889   11.83036   90.00000   90.00000   81.63931
LATT -1
SFAC Li O  S  Fe 
Li     1 -0.3455040000000  0.0243350000000  0.2811320000000 1.0   0.01
Li     1 -0.3455040000000  0.0243350000000 -0.2811320000000 1.0   0.01
O      2  0.1220570000000 -0.4528740000000  0.0000000000000 1.0  -0.23
S      3 -0.4331400000000 -0.4512370000000  0.2102780000000 1.0  -0.09
S      3 -0.4331400000000 -0.4512370000000 -0.2102780000000 1.0  -0.09
S      3 -0.0004220000000 -0.0270630000000 -0.2290510000000 1.0  -0.18
S      3 -0.0004220000000 -0.0270630000000  0.2290510000000 1.0  -0.18
Fe     4 -0.0982590000000  0.4807770000000 -0.1414890000000 1.0  -3.85
Fe     4 -0.0982590000000  0.4807770000000  0.1414890000000 1.0  -3.85
Fe     4  0.2628260000000 -0.3065630000000  0.1312010000000 1.0  -3.78
Fe     4  0.2628260000000 -0.3065630000000 -0.1312010000000 1.0  -3.78
END
