TITL LFSO-Li2Fe3S2O2-201022-142623-ff3a01 0.0330 229.631801 -4.46916197E+003 12.0000 12.1585 9 (Pm) n - 1
REM
REM Run started: Thu, 22 Oct 2020 18:32:29 +0100 in /lustre/scratch/uccabz1/launch_tmp/launcher_2020-10-22-17-23-21-387551
REM CASTEP 20.1 from code version af48c487+ pr-geom-scf-spinfix Tue Jun 2 15:39:59 2020 +0100
REM Functional Perdew Burke Ernzerhof Relativity Koelling-Harmon Dispersion off
REM Cut-off 340.0000 eV Grid scale 1.7500 Gmax 16.5316 1/A FBSC none
REM MP grid 5 2 3 Offset 0.000 0.000 0.000 No. kpts 8 Spacing 0.07
REM Total runtime: 13488.6 s
REM Overall efficiency: 95.3846 %
REM
REM
REM
REM compiler GCC version 4.9.2
REM options -cpp -iprefix /lustre/shared/ucl/apps/gcc/4.9.2/bin/../lib/gcc/x86_64-unknown-linux-gnu/4.9.2/ -mtune=corei7 -march=x86-64 -g -Og
REM COMMAND_LINE
REM seed -207594229 701304141 485867527 1894816902 -8045390 -2041702498 803062928 -2067381540 1295761621 134508837 144775693 1809119894
REM
REM S 3|1.8|5|6|7|30:31:32(qc=5)
REM O 2|1.5|12|13|15|20:21(qc=5)
REM Li 1|1.3|8|9|10|10U:20(qc=5)
REM Fe 3|2.2|2.0|1.0|8|9|10|40:41:32(qc=5)
REM Fe d:4.0 
REM
CELL 1.54180    3.73881   10.20371    7.53172   90.00000  126.94796   90.00000
LATT -1
SFAC Li O  S  Fe 
Li     1  0.1071170000000 -0.2773160000000 -0.0484280000000 1.0  -0.04
Li     1  0.1071170000000  0.2773160000000 -0.0484280000000 1.0  -0.04
O      2 -0.2687020000000  0.3403040000000  0.0383400000000 1.0   0.18
O      2 -0.2687020000000 -0.3403040000000  0.0383400000000 1.0   0.18
S      3 -0.1135030000000 -0.3047650000000 -0.4204550000000 1.0   0.13
S      3 -0.1135030000000  0.3047650000000 -0.4204550000000 1.0   0.13
Fe     4  0.1083790000000 -0.3165800000000  0.3516950000000 1.0   3.81
Fe     4  0.1083790000000  0.3165800000000  0.3516950000000 1.0   3.81
Fe     4  0.4181590000000 -0.5000000000000 -0.1576340000000 1.0   3.83
END
