TITL LFSO-Li4Fe3S3O2-201028-234719-15bfa2 -0.0029 684.925277 -1.03441177E+004 24.0000 24.6680 24 (R3) n - 1
REM
REM Run started: Thu, 29 Oct 2020 18:45:31 +0000 in /lustre/scratch/uccabz1/launch_tmp/launcher_2020-10-28-23-47-17-277743
REM CASTEP 20.1 from code version af48c487+ pr-geom-scf-spinfix Tue Jun 2 15:39:59 2020 +0100
REM Functional Perdew Burke Ernzerhof Relativity Koelling-Harmon Dispersion off
REM Cut-off 340.0000 eV Grid scale 1.7500 Gmax 16.5316 1/A FBSC none
REM MP grid 2 2 2 Offset 0.000 0.000 0.000 No. kpts 4 Spacing 0.07
REM Total runtime: 68583.9 s
REM Overall efficiency: 73.0769 %
REM
REM
REM
REM compiler GCC version 4.9.2
REM options -cpp -iprefix /lustre/shared/ucl/apps/gcc/4.9.2/bin/../lib/gcc/x86_64-unknown-linux-gnu/4.9.2/ -mtune=corei7 -march=x86-64 -g -Og
REM COMMAND_LINE
REM seed 603112586 1462069150 -712802386 1673816157 1942747773 -950796066 768038645 1451909167 -958534348 125737194 170965419 -155313212
REM
REM S 3|1.8|5|6|7|30:31:32(qc=5)
REM O 2|1.5|12|13|15|20:21(qc=5)
REM Li 1|1.3|8|9|10|10U:20(qc=5)
REM Fe 3|2.2|2.0|1.0|8|9|10|40:41:32(qc=5)
REM Fe d:4.0 
REM
CELL 1.54180    8.78329    8.78329   11.43739   67.42001   67.42001   60.00000
LATT -1
SFAC Li O  S  Fe 
Li     1 -0.3312940000000  0.3976050000000  0.0579250000000 1.0  -0.04
Li     1  0.3976050000000 -0.1242350000000  0.0579250000000 1.0  -0.04
Li     1 -0.1242350000000 -0.3312940000000  0.0579250000000 1.0  -0.04
Li     1  0.2908640000000  0.2644150000000  0.5422830000000 1.0  -0.02
Li     1  0.2644150000000 -0.0975620000000  0.5422830000000 1.0  -0.02
Li     1 -0.0975620000000  0.2908640000000  0.5422830000000 1.0  -0.02
Li     1 -0.2042260000000 -0.2042260000000 -0.3873230000000 1.0  -0.02
Li     1 -0.0886590000000 -0.0886590000000  0.2659760000000 1.0  -0.04
O      2 -0.2334480000000  0.1586650000000  0.1576380000000 1.0   0.22
O      2  0.1586650000000 -0.0828560000000  0.1576380000000 1.0   0.22
O      2 -0.0828560000000 -0.2334480000000  0.1576380000000 1.0   0.22
O      2  0.0643240000000  0.0643240000000 -0.1929710000000 1.0   0.26
S      3 -0.5173690000000 -0.0443850000000 -0.4287650000000 1.0   0.10
S      3 -0.0443850000000 -0.0094820000000 -0.4287650000000 1.0   0.10
S      3 -0.0094820000000 -0.5173690000000 -0.4287650000000 1.0   0.10
S      3  0.4411160000000 -0.3545180000000 -0.0507330000000 1.0   0.10
S      3 -0.3545180000000 -0.0358650000000 -0.0507330000000 1.0   0.10
S      3 -0.0358650000000  0.4411160000000 -0.0507330000000 1.0   0.10
Fe     4 -0.0010130000000  0.3210600000000 -0.2155090000000 1.0   3.77
Fe     4  0.3210600000000 -0.1045380000000 -0.2155090000000 1.0   3.77
Fe     4 -0.1045380000000 -0.0010130000000 -0.2155090000000 1.0   3.77
Fe     4 -0.2603980000000  0.0083680000000  0.0889110000000 1.0   3.79
Fe     4  0.0083680000000  0.1631180000000  0.0889110000000 1.0   3.79
Fe     4  0.1631180000000 -0.2603980000000  0.0889110000000 1.0   3.79
END
