TITL LFSO-Li6FeSO3-201028-053636-7e0e7c 0.0325 133.541710 -3.67946417E+003 4.00000 4.06217 11 (Cm) n - 1
REM
REM Run started: Wed, 28 Oct 2020 07:13:28 +0000 in /lustre/scratch/uccabz1/launch_tmp/launcher_2020-10-28-05-36-34-826598
REM CASTEP 20.1 from code version af48c487+ pr-geom-scf-spinfix Tue Jun 2 15:39:59 2020 +0100
REM Functional Perdew Burke Ernzerhof Relativity Koelling-Harmon Dispersion off
REM Cut-off 340.0000 eV Grid scale 1.7500 Gmax 16.5316 1/A FBSC none
REM MP grid 5 5 4 Offset 0.000 0.000 0.000 No. kpts 30 Spacing 0.07
REM Total runtime: 6488.57 s
REM Overall efficiency: 88.8462 %
REM
REM
REM
REM compiler GCC version 4.9.2
REM options -cpp -iprefix /lustre/shared/ucl/apps/gcc/4.9.2/bin/../lib/gcc/x86_64-unknown-linux-gnu/4.9.2/ -mtune=corei7 -march=x86-64 -g -Og
REM COMMAND_LINE
REM seed -1854746960 387960818 1686858708 1282469422 -1327084344 1476132170 -1714835344 -1008655079 2143510495 -625717807 573257576 -1161425645
REM
REM S 3|1.8|5|6|7|30:31:32(qc=5)
REM O 2|1.5|12|13|15|20:21(qc=5)
REM Li 1|1.3|8|9|10|10U:20(qc=5)
REM Fe 3|2.2|2.0|1.0|8|9|10|40:41:32(qc=5)
REM Fe d:4.0 
REM
CELL 1.54180    6.16984    6.16984    7.95714   58.28518   58.28518  107.30712
LATT -1
SFAC Li O  S  Fe 
Li     1 -0.6341930000000  0.0266450000000 -0.1931840000000 1.0  -0.02
Li     1  0.0266450000000 -0.6341930000000 -0.1931840000000 1.0  -0.02
Li     1  0.1317400000000  0.4712740000000  0.3691420000000 1.0  -0.04
Li     1  0.4712740000000  0.1317400000000  0.3691420000000 1.0  -0.04
Li     1  0.1208690000000 -0.6413480000000  0.0826340000000 1.0   0.02
Li     1 -0.6413480000000  0.1208690000000  0.0826340000000 1.0   0.02
O      2  0.0837260000000  0.6619040000000 -0.1359720000000 1.0   0.05
O      2  0.6619040000000  0.0837260000000 -0.1359720000000 1.0   0.05
O      2  0.2640280000000  0.2640280000000  0.2522150000000 1.0   0.09
S      3  0.7258310000000  0.7258310000000 -0.6875630000000 1.0   0.05
Fe     4 -0.1833300000000 -0.1833300000000 -0.0938660000000 1.0   3.85
END
