TITL LFSO-Li2Fe2S2O-201022-072815-d59701 -0.2325 139.545000 -3.16951080E+003 8.00000 8.05354 7 (Cm) n - 1
REM
REM Run started: Thu, 22 Oct 2020 09:38:16 +0100 in /scratch/scratch/uccabz1/launch_tmp/launcher_2020-10-22-06-28-13-444458
REM CASTEP 19.11| from code version Version unavailable
REM Functional Perdew Burke Ernzerhof Relativity Koelling-Harmon Dispersion off
REM Cut-off 340.0000 eV Grid scale 1.7500 Gmax 16.5316 1/A FBSC none
REM MP grid 4 4 4 Offset 0.000 0.000 0.000 No. kpts 20 Spacing 0.07
REM Total runtime: 9619.05 s
REM Overall efficiency: 86.9231 %
REM
REM
REM
REM compiler GCC version 4.9.2
REM options -cpp -iprefix /scratch/UCL/applications/gcc/4.9.2/bin/../lib/gcc/x86_64-unknown-linux-gnu/4.9.2/ -mtune=corei7 -march=x86-64 -g -O2
REM COMMAND_LINE
REM seed -660732995 1831615090 18970555 1401695983 1322149755 12510686 1545596674 62231610 1380787817 -849142856 1700250703 -482686621
REM
REM S 3|1.8|5|6|7|30:31:32(qc=5)
REM O 2|1.5|12|13|15|20:21(qc=5)
REM Li 1|1.3|8|9|10|10U:20(qc=5)
REM Fe 3|2.2|2.0|1.0|8|9|10|40:41:32(qc=5)
REM Fe d:4.0 
REM
CELL 1.54180    6.53524    6.53524    6.61440  119.09821  119.09821  110.22355
LATT -1
SFAC Li O  S  Fe 
Li     1  0.2812230000000 -0.4732180000000 -0.4441490000000 1.0  -0.04
Li     1 -0.4732180000000  0.2812230000000 -0.4441490000000 1.0  -0.04
O      2 -0.4815010000000 -0.4815010000000 -0.1336250000000 1.0   0.16
S      3  0.3478990000000 -0.1957940000000  0.4287070000000 1.0   0.08
S      3 -0.1957940000000  0.3478990000000  0.4287070000000 1.0   0.08
Fe     4  0.4099320000000 -0.2839030000000  0.0725130000000 1.0   3.88
Fe     4 -0.2839030000000  0.4099320000000  0.0725130000000 1.0   3.88
END
