TITL LFSO-Li2FeSO-201023-071858-19fc24 -0.7193 309.783292 -4.00017013E+003 4.00380 5.78344 10 (R3) n - 1
REM
REM Run started: Fri, 23 Oct 2020 13:31:06 +0100 in /lustre/scratch/uccabz1/launch_tmp/launcher_2020-10-23-06-18-56-787931
REM CASTEP 20.1 from code version af48c487+ pr-geom-scf-spinfix Tue Jun 2 15:39:59 2020 +0100
REM Functional Perdew Burke Ernzerhof Relativity Koelling-Harmon Dispersion off
REM Cut-off 340.0000 eV Grid scale 1.7500 Gmax 16.5316 1/A FBSC none
REM MP grid 3 3 2 Offset 0.000 0.000 0.000 No. kpts 7 Spacing 0.07
REM Total runtime: 24453.1 s
REM Overall efficiency: 74.3333 %
REM
REM
REM
REM compiler GCC version 4.9.2
REM options -cpp -iprefix /lustre/shared/ucl/apps/gcc/4.9.2/bin/../lib/gcc/x86_64-unknown-linux-gnu/4.9.2/ -mtune=corei7 -march=x86-64 -g -Og
REM COMMAND_LINE
REM seed -31709522 -1003564911 -1360135688 1470087857 -253333983 2080136329 -1945314369 996510761 593790666 1046253175 -160456959 -893786220
REM
REM S 3|1.8|5|6|7|30:31:32(qc=5)
REM O 2|1.5|12|13|15|20:21(qc=5)
REM Li 1|1.3|8|9|10|10U:20(qc=5)
REM Fe 3|2.2|2.0|1.0|8|9|10|40:41:32(qc=5)
REM Fe d:4.0 
REM
CELL 1.54180    6.15554    6.15554   10.08729   72.23505   72.23505   60.00000
LATT -1
SFAC Li O  S  Fe 
Li     1 -0.0205880000000  0.1886550000000  0.3004120000000 1.0  -0.01
Li     1 -0.4684790000000 -0.0205880000000  0.3004120000000 1.0  -0.01
Li     1  0.1886550000000 -0.4684790000000  0.3004120000000 1.0  -0.01
Li     1 -0.2148990000000 -0.2148990000000  0.6446970000000 1.0  -0.02
O      2  0.3855960000000  0.3855960000000 -1.1567880000000 1.0   0.21
O      2  0.2616620000000  0.2616620000000 -0.7849850000000 1.0   0.06
S      3 -0.4312090000000 -0.4312090000000  1.2936270000000 1.0   0.10
S      3 -0.1384480000000 -0.1384480000000  0.4153430000000 1.0  -0.01
Fe     4  0.3253910000000  0.3253910000000 -0.9761740000000 1.0  -0.29
Fe     4 -0.3542880000000 -0.3542880000000  1.0628630000000 1.0   3.98
END
