TITL LFSO-Li6FeS3O-201027-203012-9e2922 0.1786 785.116551 -6.82022841E+003 8.00000 8.35750 22 (P2/m) n - 1
REM
REM Run started: Tue, 27 Oct 2020 23:28:47 +0000 in /lustre/scratch/uccabz1/launch_tmp/launcher_2020-10-27-20-30-10-760574
REM CASTEP 20.1 from code version af48c487+ pr-geom-scf-spinfix Tue Jun 2 15:39:59 2020 +0100
REM Functional Perdew Burke Ernzerhof Relativity Koelling-Harmon Dispersion off
REM Cut-off 340.0000 eV Grid scale 1.7500 Gmax 16.5316 1/A FBSC none
REM MP grid 3 2 2 Offset 0.000 0.000 0.000 No. kpts 3 Spacing 0.07
REM Total runtime: 11905.2 s
REM Overall efficiency: 77.0833 %
REM
REM
REM
REM compiler GCC version 4.9.2
REM options -cpp -iprefix /lustre/shared/ucl/apps/gcc/4.9.2/bin/../lib/gcc/x86_64-unknown-linux-gnu/4.9.2/ -mtune=corei7 -march=x86-64 -g -Og
REM COMMAND_LINE
REM seed -45413685 -724484929 1058939163 -815294848 754236015 -880835754 -1021916452 -63748455 392125749 255206079 440615746 -1618640641
REM
REM S 3|1.8|5|6|7|30:31:32(qc=5)
REM O 2|1.5|12|13|15|20:21(qc=5)
REM Li 1|1.3|8|9|10|10U:20(qc=5)
REM Fe 3|2.2|2.0|1.0|8|9|10|40:41:32(qc=5)
REM Fe d:4.0 
REM
CELL 1.54180    7.78719   10.36378   10.95112   90.00000   62.66476   90.00000
LATT -1
SFAC Li O  S  Fe 
Li     1  0.3354870000000  0.1372240000000 -0.3774370000000 1.0  -0.02
Li     1 -0.3354870000000  0.1372240000000  0.3774370000000 1.0  -0.02
Li     1 -0.3354870000000 -0.1372240000000  0.3774370000000 1.0  -0.02
Li     1  0.3354870000000 -0.1372240000000 -0.3774370000000 1.0  -0.02
Li     1  0.0692220000000 -0.1147280000000  0.2709790000000 1.0  -0.02
Li     1 -0.0692220000000 -0.1147280000000 -0.2709790000000 1.0  -0.02
Li     1 -0.0692220000000  0.1147280000000 -0.2709790000000 1.0  -0.02
Li     1  0.0692220000000  0.1147280000000  0.2709790000000 1.0  -0.02
Li     1  0.5023760000000  0.1178970000000  0.1275160000000 1.0   0.01
Li     1 -0.5023760000000  0.1178970000000 -0.1275160000000 1.0   0.01
Li     1 -0.5023760000000 -0.1178970000000 -0.1275160000000 1.0   0.01
Li     1  0.5023760000000 -0.1178970000000  0.1275160000000 1.0   0.01
O      2  0.1511690000000  0.0000000000000 -0.3575340000000 1.0   0.13
O      2 -0.1511690000000  0.0000000000000  0.3575340000000 1.0   0.13
S      3 -0.3763460000000 -0.1985350000000 -0.3559300000000 1.0   0.12
S      3  0.3763460000000 -0.1985350000000  0.3559300000000 1.0   0.12
S      3  0.3763460000000  0.1985350000000  0.3559300000000 1.0   0.12
S      3 -0.3763460000000  0.1985350000000 -0.3559300000000 1.0   0.12
S      3 -0.2640990000000  0.0000000000000 -0.0731660000000 1.0   0.02
S      3  0.2640990000000  0.0000000000000  0.0731660000000 1.0   0.02
Fe     4  0.2628480000000  0.0000000000000 -0.5571650000000 1.0   3.68
Fe     4 -0.2628480000000  0.0000000000000  0.5571650000000 1.0   3.68
END
