TITL LFSO-Li2FeSO-201025-015147-f61264 -0.0007 164.978235 -4.00662098E+003 7.99695 8.10470 10 (Pnnm) n - 1
REM
REM Run started: Sun, 25 Oct 2020 01:31:47 +0000 in /lustre/scratch/uccabz1/launch_tmp/launcher_2020-10-25-00-51-45-438869
REM CASTEP 20.1 from code version af48c487+ pr-geom-scf-spinfix Tue Jun 2 15:39:59 2020 +0100
REM Functional Perdew Burke Ernzerhof Relativity Koelling-Harmon Dispersion off
REM Cut-off 340.0000 eV Grid scale 1.7500 Gmax 16.5316 1/A FBSC none
REM MP grid 3 4 2 Offset 0.000 0.000 0.000 No. kpts 6 Spacing 0.07
REM Total runtime: 2835.32 s
REM Overall efficiency: 94 %
REM
REM
REM
REM compiler GCC version 4.9.2
REM options -cpp -iprefix /lustre/shared/ucl/apps/gcc/4.9.2/bin/../lib/gcc/x86_64-unknown-linux-gnu/4.9.2/ -mtune=corei7 -march=x86-64 -g -Og
REM COMMAND_LINE
REM seed 151911376 -1460437478 -1379198668 -1869383588 1817535950 1574628547 578774645 1103531641 -1038558653 1871183743 -319650668 -1588057935
REM
REM S 3|1.8|5|6|7|30:31:32(qc=5)
REM O 2|1.5|12|13|15|20:21(qc=5)
REM Li 1|1.3|8|9|10|10U:20(qc=5)
REM Fe 3|2.2|2.0|1.0|8|9|10|40:41:32(qc=5)
REM Fe d:4.0 
REM
CELL 1.54180    5.32520    3.86582    8.01399   90.00000   90.00000   89.99456
LATT -1
SFAC Li O  S  Fe 
Li     1 -0.3156250000000 -0.4999900000000 -0.3839180000000 1.0  -0.07
Li     1 -0.1843750000000 -0.0000100000000  0.1160820000000 1.0  -0.07
Li     1  0.3156250000000  0.4999900000000  0.3839180000000 1.0  -0.07
Li     1  0.1843750000000  0.0000100000000 -0.1160820000000 1.0  -0.07
O      2 -0.5000000000000  0.0000000000000  0.0000000000000 1.0   0.16
O      2  0.0000000000000  0.5000000000000 -0.5000000000000 1.0   0.16
S      3 -0.5000000000000  0.0000000000000 -0.5000000000000 1.0   0.13
S      3  0.0000000000000  0.5000000000000  0.0000000000000 1.0   0.13
Fe     4  0.0000000000000  0.0000000000000 -0.5000000000000 1.0   3.85
Fe     4 -0.5000000000000  0.5000000000000  0.0000000000000 1.0   3.85
END
