TITL LFSO-Li4Fe3S4O-201029-194416-bc7109 0.0257 299.951660 -5.03569786E+003 9.99274 10.2530 12 (Pm) n - 1
REM
REM Run started: Thu, 29 Oct 2020 23:15:40 +0000 in /lustre/scratch/uccabz1/launch_tmp/launcher_2020-10-29-19-44-14-977781
REM CASTEP 20.1 from code version af48c487+ pr-geom-scf-spinfix Tue Jun 2 15:39:59 2020 +0100
REM Functional Perdew Burke Ernzerhof Relativity Koelling-Harmon Dispersion off
REM Cut-off 340.0000 eV Grid scale 1.7500 Gmax 16.5316 1/A FBSC none
REM MP grid 6 2 2 Offset 0.000 0.000 0.000 No. kpts 6 Spacing 0.07
REM Total runtime: 12771 s
REM Overall efficiency: 90.3 %
REM
REM
REM
REM compiler GCC version 4.9.2
REM options -cpp -iprefix /lustre/shared/ucl/apps/gcc/4.9.2/bin/../lib/gcc/x86_64-unknown-linux-gnu/4.9.2/ -mtune=corei7 -march=x86-64 -g -Og
REM COMMAND_LINE
REM seed 1733281390 441615426 1157211045 -1904395434 2123713665 -1853884198 -1959943124 -356243570 -555129722 -1545388976 791734519 928826277
REM
REM S 3|1.8|5|6|7|30:31:32(qc=5)
REM O 2|1.5|12|13|15|20:21(qc=5)
REM Li 1|1.3|8|9|10|10U:20(qc=5)
REM Fe 3|2.2|2.0|1.0|8|9|10|40:41:32(qc=5)
REM Fe d:4.0 
REM
CELL 1.54180    2.77395    7.84944   13.96027   90.00000   90.00000   99.32750
LATT -1
SFAC Li O  S  Fe 
Li     1  0.0428630000000  0.2964540000000  0.0790900000000 1.0  -0.02
Li     1  0.0428630000000  0.2964540000000 -0.0790900000000 1.0  -0.02
Li     1  0.4891530000000  0.2569300000000 -0.2551890000000 1.0   0.02
Li     1  0.4891530000000  0.2569300000000  0.2551890000000 1.0   0.02
O      2  0.5919620000000  0.3960360000000  0.0000000000000 1.0   0.11
S      3 -0.4775420000000  0.0346370000000  0.1427980000000 1.0   0.01
S      3 -0.4775420000000  0.0346370000000 -0.1427980000000 1.0   0.01
S      3  0.1138160000000 -0.4947530000000 -0.2358240000000 1.0   0.03
S      3  0.1138160000000 -0.4947530000000  0.2358240000000 1.0   0.03
Fe     4 -0.2717260000000 -0.3980930000000  0.0917360000000 1.0   3.32
Fe     4 -0.2717260000000 -0.3980930000000 -0.0917360000000 1.0   3.32
Fe     4 -0.0672300000000 -0.1018720000000  0.0000000000000 1.0   3.17
END
