TITL LFSO-Li3FeS2O-201022-204251-d59ab9 -0.0328 504.108980 -7.51948920E+003 11.0000 11.9804 21 (Cm) n - 1
REM
REM Run started: Fri, 23 Oct 2020 09:49:56 +0100 in /lustre/scratch/uccabz1/launch_tmp/launcher_2020-10-23-07-13-06-826382
REM CASTEP 20.1 from code version af48c487+ pr-geom-scf-spinfix Tue Jun 2 15:39:59 2020 +0100
REM Functional Perdew Burke Ernzerhof Relativity Koelling-Harmon Dispersion off
REM Cut-off 340.0000 eV Grid scale 1.7500 Gmax 16.5316 1/A FBSC none
REM MP grid 5 2 2 Offset 0.000 0.000 0.000 No. kpts 8 Spacing 0.07
REM Total runtime: 42720.3 s
REM Overall efficiency: 98.1818 %
REM
REM
REM
REM compiler GCC version 4.9.2
REM options -cpp -iprefix /lustre/shared/ucl/apps/gcc/4.9.2/bin/../lib/gcc/x86_64-unknown-linux-gnu/4.9.2/ -mtune=corei7 -march=x86-64 -g -Og
REM COMMAND_LINE
REM seed 275930903 828937741 1148679928 571410377 704522842 1498266735 -441000747 -729573451 -741367642 -1939070372 -226966344 1619065334
REM
REM S 3|1.8|5|6|7|30:31:32(qc=5)
REM O 2|1.5|12|13|15|20:21(qc=5)
REM Li 1|1.3|8|9|10|10U:20(qc=5)
REM Fe 3|2.2|2.0|1.0|8|9|10|40:41:32(qc=5)
REM Fe d:4.0 
REM
CELL 1.54180    7.73125   12.67243   12.67243   73.70692  136.47333  136.47333
LATT -1
SFAC Li O  S  Fe 
Li     1  0.4821120000000 -0.0126800000000 -0.3044840000000 1.0  -0.06
Li     1  0.4821120000000 -0.3044840000000 -0.0126800000000 1.0  -0.06
Li     1  0.7440810000000  0.3704450000000  0.5628800000000 1.0  -0.04
Li     1  0.7440810000000  0.5628800000000  0.3704450000000 1.0  -0.04
Li     1 -0.1921510000000  0.4503600000000  0.2781770000000 1.0  -0.00
Li     1 -0.1921510000000  0.2781770000000  0.4503600000000 1.0  -0.00
Li     1  0.3204540000000 -0.1264800000000 -0.5549280000000 1.0   0.02
Li     1  0.3204540000000 -0.5549280000000 -0.1264800000000 1.0   0.02
Li     1 -0.8065300000000 -0.1260830000000 -0.1260830000000 1.0  -0.00
O      2  0.0548690000000  0.4836360000000 -0.2116950000000 1.0   0.12
O      2  0.0548690000000 -0.2116950000000  0.4836360000000 1.0   0.12
O      2 -0.3549320000000  0.3699030000000  0.3699030000000 1.0   0.10
S      3 -0.1415680000000  0.1792960000000 -0.3588500000000 1.0  -0.08
S      3 -0.1415680000000 -0.3588500000000  0.1792960000000 1.0  -0.08
S      3  0.4124820000000  0.3895470000000 -0.2779340000000 1.0  -0.07
S      3  0.4124820000000 -0.2779340000000  0.3895470000000 1.0  -0.07
S      3 -0.3670500000000 -0.1130430000000  0.1289680000000 1.0   0.09
S      3 -0.3670500000000  0.1289680000000 -0.1130430000000 1.0   0.09
Fe     4 -0.2775580000000  0.3417230000000 -0.2002870000000 1.0   3.63
Fe     4 -0.2775580000000 -0.2002870000000  0.3417230000000 1.0   3.63
Fe     4  0.0620130000000  0.1598360000000  0.1598360000000 1.0   3.69
END
