TITL LFSO-Li3FeS2O-201025-055546-bc2cf6 0.0144 303.470718 -5.01249540E+003 6.00000 7.03928 14 (C2/m) n - 1
REM
REM Run started: Sun, 25 Oct 2020 07:06:17 +0000 in /scratch/scratch/uccabz1/launch_tmp/launcher_2020-10-25-05-55-44-842510
REM CASTEP 19.11| from code version Version unavailable
REM Functional Perdew Burke Ernzerhof Relativity Koelling-Harmon Dispersion off
REM Cut-off 340.0000 eV Grid scale 1.7500 Gmax 16.5316 1/A FBSC none
REM MP grid 4 2 2 Offset 0.000 0.000 0.000 No. kpts 6 Spacing 0.07
REM Total runtime: 4913.32 s
REM Overall efficiency: 79.5714 %
REM
REM
REM
REM compiler GCC version 4.9.2
REM options -cpp -iprefix /scratch/UCL/applications/gcc/4.9.2/bin/../lib/gcc/x86_64-unknown-linux-gnu/4.9.2/ -mtune=corei7 -march=x86-64 -g -O2
REM COMMAND_LINE
REM seed -1713151835 176711019 1630834388 1400833372 -1334713094 -648335241 2102706431 212772045 -1842872741 1611149951 226168287 -1590330493
REM
REM S 3|1.8|5|6|7|30:31:32(qc=5)
REM O 2|1.5|12|13|15|20:21(qc=5)
REM Li 1|1.3|8|9|10|10U:20(qc=5)
REM Fe 3|2.2|2.0|1.0|8|9|10|40:41:32(qc=5)
REM Fe d:4.0 
REM
CELL 1.54180    4.58912    8.91726    8.91726  123.59528   91.53980   91.53980
LATT -1
SFAC Li O  S  Fe 
Li     1 -0.2297710000000 -0.3022500000000  0.4981210000000 1.0  -0.01
Li     1  0.2297710000000 -0.4981210000000  0.3022500000000 1.0  -0.01
Li     1  0.2297710000000  0.3022500000000 -0.4981210000000 1.0  -0.01
Li     1 -0.2297710000000  0.4981210000000 -0.3022500000000 1.0  -0.01
Li     1 -0.5000000000000  0.5000000000000  0.0000000000000 1.0   0.01
Li     1  0.5000000000000  0.0000000000000 -0.5000000000000 1.0   0.01
O      2  0.0000000000000 -0.0772500000000  0.0772500000000 1.0  -0.07
O      2 -0.0000000000000  0.0772500000000 -0.0772500000000 1.0  -0.07
S      3 -0.2805270000000  0.1996340000000  0.4274960000000 1.0  -0.06
S      3  0.2805270000000 -0.4274960000000 -0.1996340000000 1.0  -0.06
S      3  0.2805270000000 -0.1996340000000 -0.4274960000000 1.0  -0.06
S      3 -0.2805270000000  0.4274960000000  0.1996340000000 1.0  -0.06
Fe     4 -0.1523880000000  0.1393920000000  0.1393920000000 1.0   3.21
Fe     4  0.1523880000000 -0.1393920000000 -0.1393920000000 1.0   3.21
END
