TITL LFSO-Li4Fe3S3O2-201030-052112-3de283 -0.0270 435.941975 -1.03454208E+004 -0.658479E-14 22.6637 24 (R3) n - 1
REM
REM Run started: Fri, 30 Oct 2020 09:33:01 +0000 in /lustre/scratch/uccabz1/launch_tmp/launcher_2020-10-30-05-21-11-308687
REM CASTEP 20.1 from code version af48c487+ pr-geom-scf-spinfix Tue Jun 2 15:39:59 2020 +0100
REM Functional Perdew Burke Ernzerhof Relativity Koelling-Harmon Dispersion off
REM Cut-off 340.0000 eV Grid scale 1.7500 Gmax 16.5316 1/A FBSC none
REM MP grid 2 2 2 Offset 0.000 0.000 0.000 No. kpts 2 Spacing 0.07
REM Total runtime: 12714.5 s
REM Overall efficiency: 72.5833 %
REM
REM
REM
REM compiler GCC version 4.9.2
REM options -cpp -iprefix /lustre/shared/ucl/apps/gcc/4.9.2/bin/../lib/gcc/x86_64-unknown-linux-gnu/4.9.2/ -mtune=corei7 -march=x86-64 -g -Og
REM COMMAND_LINE
REM seed -1121755728 1102009538 1171480675 669044337 1115750115 -1401204479 -805285431 -517109802 -982196554 -1644395661 903708106 1246745594
REM
REM S 3|1.8|5|6|7|30:31:32(qc=5)
REM O 2|1.5|12|13|15|20:21(qc=5)
REM Li 1|1.3|8|9|10|10U:20(qc=5)
REM Fe 3|2.2|2.0|1.0|8|9|10|40:41:32(qc=5)
REM Fe d:4.0 
REM
CELL 1.54180    7.59380    7.59380    7.59380   86.81202   86.81202   86.81202
LATT -1
SFAC Li O  S  Fe 
Li     1 -0.3574260000000  0.2071850000000 -0.5879520000000 1.0  -0.08
Li     1  0.2071850000000 -0.5879520000000 -0.3574260000000 1.0  -0.08
Li     1 -0.5879520000000 -0.3574260000000  0.2071850000000 1.0  -0.08
Li     1  0.5966690000000 -0.1529160000000 -0.4454170000000 1.0   0.03
Li     1 -0.1529160000000 -0.4454170000000  0.5966690000000 1.0   0.03
Li     1 -0.4454170000000  0.5966690000000 -0.1529160000000 1.0   0.03
Li     1 -0.1634950000000 -0.1634950000000 -0.1634950000000 1.0   0.08
Li     1  0.0637510000000  0.0637510000000  0.0637510000000 1.0   0.08
O      2  0.0666520000000  0.0232540000000  0.3096970000000 1.0   0.03
O      2  0.0232540000000  0.3096970000000  0.0666520000000 1.0   0.03
O      2  0.3096970000000  0.0666520000000  0.0232540000000 1.0   0.03
O      2 -0.2884400000000 -0.2884400000000 -0.2884400000000 1.0  -0.01
S      3  0.1185580000000 -0.4271360000000  0.3798370000000 1.0   0.01
S      3 -0.4271360000000  0.3798370000000  0.1185580000000 1.0   0.01
S      3  0.3798370000000  0.1185580000000 -0.4271360000000 1.0   0.01
S      3 -0.3585660000000 -0.1332980000000  0.2406390000000 1.0  -0.03
S      3 -0.1332980000000  0.2406390000000 -0.3585660000000 1.0  -0.03
S      3  0.2406390000000 -0.3585660000000 -0.1332980000000 1.0  -0.03
Fe     4  0.3343960000000  0.0218170000000  0.2847080000000 1.0   3.70
Fe     4  0.0218170000000  0.2847080000000  0.3343960000000 1.0   3.70
Fe     4  0.2847080000000  0.3343960000000  0.0218170000000 1.0   3.70
Fe     4 -0.0703060000000 -0.1789060000000  0.3315660000000 1.0  -3.72
Fe     4 -0.1789060000000  0.3315660000000 -0.0703060000000 1.0  -3.72
Fe     4  0.3315660000000 -0.0703060000000 -0.1789060000000 1.0  -3.72
END
