TITL LFSO-Li4Fe2S3O-201027-021319-fda1ec 0.0245 169.505623 -3.87373136E+003 8.00000 8.08297 10 (Cm) n - 1
REM
REM Run started: Tue, 27 Oct 2020 12:38:15 +0000 in /lustre/scratch/uccabz1/launch_tmp/launcher_2020-10-27-02-13-17-592278
REM CASTEP 20.1 from code version af48c487+ pr-geom-scf-spinfix Tue Jun 2 15:39:59 2020 +0100
REM Functional Perdew Burke Ernzerhof Relativity Koelling-Harmon Dispersion off
REM Cut-off 340.0000 eV Grid scale 1.7500 Gmax 16.5316 1/A FBSC none
REM MP grid 5 4 3 Offset 0.000 0.000 0.000 No. kpts 30 Spacing 0.07
REM Total runtime: 16456.6 s
REM Overall efficiency: 80.0833 %
REM
REM
REM
REM compiler GCC version 4.9.2
REM options -cpp -iprefix /lustre/shared/ucl/apps/gcc/4.9.2/bin/../lib/gcc/x86_64-unknown-linux-gnu/4.9.2/ -mtune=corei7 -march=x86-64 -g -Og
REM COMMAND_LINE
REM seed -464335984 -1200464118 -51180523 2139674677 147346725 -663687802 -230821144 1339670402 -1274163088 148636113 -103292103 1319883415
REM
REM S 3|1.8|5|6|7|30:31:32(qc=5)
REM O 2|1.5|12|13|15|20:21(qc=5)
REM Li 1|1.3|8|9|10|10U:20(qc=5)
REM Fe 3|2.2|2.0|1.0|8|9|10|40:41:32(qc=5)
REM Fe d:4.0 
REM
CELL 1.54180    7.17699    9.27592    7.56059   52.16138   56.29825   25.24097
LATT -1
SFAC Li O  S  Fe 
Li     1 -0.0115540000000 -0.3383400000000  0.2517670000000 1.0  -0.03
Li     1 -0.0115540000000 -0.0865730000000 -0.2517670000000 1.0  -0.03
Li     1  0.0297910000000  0.3328780000000  0.2106320000000 1.0  -0.01
Li     1  0.0297910000000 -0.4564900000000 -0.2106320000000 1.0  -0.01
O      2 -0.1288920000000  0.3950760000000  0.0000000000000 1.0   0.21
S      3  0.5073040000000 -0.8442570000000  0.5794750000000 1.0   0.08
S      3  0.5073040000000 -0.2647820000000 -0.5794750000000 1.0   0.08
S      3 -0.4332960000000  0.2589930000000  0.0000000000000 1.0   0.09
Fe     4 -0.1025010000000  0.3583660000000 -0.2453090000000 1.0   3.81
Fe     4 -0.1025010000000  0.1130580000000  0.2453090000000 1.0   3.81
END
