TITL LFSO-Li5FeSO3-201026-231932-5987ed -0.0742 310.556231 -6.95553237E+003 -9.99988 10.0582 20 (R3) n - 1
REM
REM Run started: Tue, 27 Oct 2020 11:15:52 +0000 in /lustre/scratch/uccabz1/launch_tmp/launcher_2020-10-26-23-19-30-497092
REM CASTEP 20.1 from code version af48c487+ pr-geom-scf-spinfix Tue Jun 2 15:39:59 2020 +0100
REM Functional Perdew Burke Ernzerhof Relativity Koelling-Harmon Dispersion off
REM Cut-off 340.0000 eV Grid scale 1.7500 Gmax 16.5316 1/A FBSC none
REM MP grid 3 3 3 Offset 0.000 0.000 0.000 No. kpts 6 Spacing 0.07
REM Total runtime: 19088.9 s
REM Overall efficiency: 97 %
REM
REM
REM
REM compiler GCC version 4.9.2
REM options -cpp -iprefix /lustre/shared/ucl/apps/gcc/4.9.2/bin/../lib/gcc/x86_64-unknown-linux-gnu/4.9.2/ -mtune=corei7 -march=x86-64 -g -Og
REM COMMAND_LINE
REM seed 952057001 1838057200 187668615 -1870594892 1969556261 -1868472470 1016418331 -1488416171 1478678017 844855914 -298250030 -1264705242
REM
REM S 3|1.8|5|6|7|30:31:32(qc=5)
REM O 2|1.5|12|13|15|20:21(qc=5)
REM Li 1|1.3|8|9|10|10U:20(qc=5)
REM Fe 3|2.2|2.0|1.0|8|9|10|40:41:32(qc=5)
REM Fe d:4.0 
REM
CELL 1.54180    7.59577    7.59577    7.60675   60.04771   60.04771   60.00000
LATT -1
SFAC Li O  S  Fe 
Li     1 -0.1955150000000  0.3233010000000 -0.0056010000000 1.0  -0.00
Li     1 -0.1221840000000 -0.1955150000000 -0.0056010000000 1.0  -0.00
Li     1  0.3233010000000 -0.1221840000000 -0.0056010000000 1.0  -0.00
Li     1  0.4454100000000  0.2157000000000 -0.4717560000000 1.0  -0.01
Li     1 -0.1893540000000  0.4454100000000 -0.4717560000000 1.0  -0.01
Li     1  0.2157000000000 -0.1893540000000 -0.4717560000000 1.0  -0.01
Li     1 -0.4556580000000  0.0005040000000  0.2568870000000 1.0   0.01
Li     1  0.1982670000000 -0.4556580000000  0.2568870000000 1.0   0.01
Li     1  0.0005040000000  0.1982670000000  0.2568870000000 1.0   0.01
Li     1  0.0605820000000  0.0605820000000 -0.1817450000000 1.0  -0.01
O      2  0.0939830000000  0.1385570000000  0.0118120000000 1.0  -0.26
O      2 -0.2443520000000  0.0939830000000  0.0118120000000 1.0  -0.26
O      2  0.1385570000000 -0.2443520000000  0.0118120000000 1.0  -0.26
O      2 -0.2847910000000 -0.2598790000000  0.4416960000000 1.0  -0.33
O      2  0.1029740000000 -0.2847910000000  0.4416960000000 1.0  -0.33
O      2 -0.2598790000000  0.1029740000000  0.4416960000000 1.0  -0.33
S      3  0.1842670000000  0.1842670000000  0.4471980000000 1.0  -0.01
S      3 -0.3244410000000 -0.3244410000000 -0.0266770000000 1.0  -0.18
Fe     4 -0.0652920000000 -0.0652920000000  0.1958770000000 1.0  -4.04
Fe     4 -0.2022900000000 -0.2022900000000 -0.3931300000000 1.0  -3.99
END
