TITL LFSO-Li4Fe3S4O-201029-072120-658ca3 0.0270 532.532760 -1.00772992E+004 23.9946 24.4057 24 (R3) n - 1
REM
REM Run started: Fri, 30 Oct 2020 10:24:56 +0000 in /lustre/scratch/uccabz1/launch_tmp/launcher_2020-10-29-18-47-37-292448
REM CASTEP 20.1 from code version af48c487+ pr-geom-scf-spinfix Tue Jun 2 15:39:59 2020 +0100
REM Functional Perdew Burke Ernzerhof Relativity Koelling-Harmon Dispersion off
REM Cut-off 340.0000 eV Grid scale 1.7500 Gmax 16.5316 1/A FBSC none
REM MP grid 3 3 3 Offset 0.000 0.000 0.000 No. kpts 6 Spacing 0.07
REM Total runtime: 87146.2 s
REM Overall efficiency: 63.9091 %
REM
REM
REM
REM compiler GCC version 4.9.2
REM options -cpp -iprefix /scratch/UCL/applications/gcc/4.9.2/bin/../lib/gcc/x86_64-unknown-linux-gnu/4.9.2/ -mtune=corei7 -march=x86-64 -g -O2
REM COMMAND_LINE
REM seed 362992583 -1800148499 -742391865 -483357667 376536501 -494819543 -734891404 1988481325 999131420 -521160726 883375619 439520444
REM
REM S 3|1.8|5|6|7|30:31:32(qc=5)
REM O 2|1.5|12|13|15|20:21(qc=5)
REM Li 1|1.3|8|9|10|10U:20(qc=5)
REM Fe 3|2.2|2.0|1.0|8|9|10|40:41:32(qc=5)
REM Fe d:4.0 
REM
CELL 1.54180   15.43424   15.43424   15.43424   23.95473   23.95473   23.95473
LATT -1
SFAC Li O  S  Fe 
Li     1 -0.0734370000000  0.4106900000000 -0.0079610000000 1.0  -0.01
Li     1  0.4106900000000 -0.0079610000000 -0.0734370000000 1.0  -0.01
Li     1 -0.0079610000000 -0.0734370000000  0.4106900000000 1.0  -0.01
Li     1  0.3118300000000 -0.2834130000000  0.1878100000000 1.0   0.00
Li     1 -0.2834130000000  0.1878100000000  0.3118300000000 1.0   0.00
Li     1  0.1878100000000  0.3118300000000 -0.2834130000000 1.0   0.00
Li     1 -0.3106310000000 -0.3106310000000 -0.3106310000000 1.0  -0.02
Li     1 -0.5403550000000 -0.5403550000000 -0.5403550000000 1.0   0.01
O      2  0.4188910000000  0.4188910000000  0.4188910000000 1.0   0.01
O      2  0.0897280000000  0.0897280000000  0.0897280000000 1.0   0.01
S      3 -0.1745840000000  0.1668420000000 -0.5039440000000 1.0   0.13
S      3  0.1668420000000 -0.5039440000000 -0.1745840000000 1.0   0.13
S      3 -0.5039440000000 -0.1745840000000  0.1668420000000 1.0   0.13
S      3 -0.4618510000000  0.2821870000000 -0.0894980000000 1.0   0.16
S      3  0.2821870000000 -0.0894980000000 -0.4618510000000 1.0   0.16
S      3 -0.0894980000000 -0.4618510000000  0.2821870000000 1.0   0.16
S      3 -0.2602000000000 -0.2602000000000 -0.2602000000000 1.0   0.02
S      3 -0.0297230000000 -0.0297230000000 -0.0297230000000 1.0   0.15
Fe     4  0.2193460000000 -0.3525280000000 -0.0674780000000 1.0   3.77
Fe     4 -0.3525280000000 -0.0674780000000  0.2193460000000 1.0   3.77
Fe     4 -0.0674780000000  0.2193460000000 -0.3525280000000 1.0   3.77
Fe     4  0.1766420000000 -0.1398580000000  0.5297500000000 1.0   3.89
Fe     4 -0.1398580000000  0.5297500000000  0.1766420000000 1.0   3.89
Fe     4  0.5297500000000  0.1766420000000 -0.1398580000000 1.0   3.89
END
