TITL LFSO-Li4Fe3S3O2-201029-174405-d1186c -0.0216 275.893431 -5.17239800E+003 12.0000 12.1083 12 (R3) n - 1
REM
REM Run started: Thu, 29 Oct 2020 20:56:01 +0000 in /lustre/scratch/uccabz1/launch_tmp/launcher_2020-10-29-17-44-04-079794
REM CASTEP 20.1 from code version af48c487+ pr-geom-scf-spinfix Tue Jun 2 15:39:59 2020 +0100
REM Functional Perdew Burke Ernzerhof Relativity Koelling-Harmon Dispersion off
REM Cut-off 340.0000 eV Grid scale 1.7500 Gmax 16.5316 1/A FBSC none
REM MP grid 3 3 3 Offset 0.000 0.000 0.000 No. kpts 6 Spacing 0.07
REM Total runtime: 12861.4 s
REM Overall efficiency: 96.75 %
REM
REM
REM
REM compiler GCC version 4.9.2
REM options -cpp -iprefix /lustre/shared/ucl/apps/gcc/4.9.2/bin/../lib/gcc/x86_64-unknown-linux-gnu/4.9.2/ -mtune=corei7 -march=x86-64 -g -Og
REM COMMAND_LINE
REM seed -1352307247 -1543511779 399903508 1043077330 -566774985 -906931370 -1120041028 930790623 76502762 -2022392164 1844261215 122854174
REM
REM S 3|1.8|5|6|7|30:31:32(qc=5)
REM O 2|1.5|12|13|15|20:21(qc=5)
REM Li 1|1.3|8|9|10|10U:20(qc=5)
REM Fe 3|2.2|2.0|1.0|8|9|10|40:41:32(qc=5)
REM Fe d:4.0 
REM
CELL 1.54180    7.02854    7.02854    7.02854  108.56434  108.56434  108.56434
LATT -1
SFAC Li O  S  Fe 
Li     1 -0.4236740000000 -0.2452370000000 -0.1275430000000 1.0  -0.02
Li     1 -0.1275430000000 -0.4236740000000 -0.2452370000000 1.0  -0.02
Li     1 -0.2452370000000 -0.1275430000000 -0.4236740000000 1.0  -0.02
Li     1  0.4262120000000  0.4262120000000  0.4262120000000 1.0  -0.04
O      2  0.1705140000000  0.1705140000000  0.1705140000000 1.0   0.20
O      2 -0.3352720000000 -0.3352720000000 -0.3352720000000 1.0   0.01
S      3  0.1364670000000 -0.3738690000000  0.1054350000000 1.0   0.10
S      3  0.1054350000000  0.1364670000000 -0.3738690000000 1.0   0.10
S      3 -0.3738690000000  0.1054350000000  0.1364670000000 1.0   0.10
Fe     4 -0.0476860000000  0.2987920000000  0.1235580000000 1.0   3.86
Fe     4  0.1235580000000 -0.0476860000000  0.2987920000000 1.0   3.86
Fe     4  0.2987920000000  0.1235580000000 -0.0476860000000 1.0   3.86
END
