TITL LFSO-Li4Fe3S3O2-201028-231032-81449e 0.0945 600.950902 -1.03443656E+004 24.0000 24.5674 24 (Aea2) n - 1
REM
REM Run started: Thu, 29 Oct 2020 10:24:58 +0000 in /lustre/scratch/uccabz1/launch_tmp/launcher_2020-10-28-23-10-29-968728
REM CASTEP 20.1 from code version af48c487+ pr-geom-scf-spinfix Tue Jun 2 15:39:59 2020 +0100
REM Functional Perdew Burke Ernzerhof Relativity Koelling-Harmon Dispersion off
REM Cut-off 340.0000 eV Grid scale 1.7500 Gmax 16.5316 1/A FBSC none
REM MP grid 3 3 1 Offset 0.000 0.000 0.000 No. kpts 4 Spacing 0.07
REM Total runtime: 45293.9 s
REM Overall efficiency: 83 %
REM
REM
REM
REM compiler GCC version 4.9.2
REM options -cpp -iprefix /lustre/shared/ucl/apps/gcc/4.9.2/bin/../lib/gcc/x86_64-unknown-linux-gnu/4.9.2/ -mtune=corei7 -march=x86-64 -g -Og
REM COMMAND_LINE
REM seed -1966427458 -1539093256 -464332277 560148232 1460581880 1121865249 -131821702 -2125922313 752259571 -1685960264 -59734714 -540139713
REM
REM S 3|1.8|5|6|7|30:31:32(qc=5)
REM O 2|1.5|12|13|15|20:21(qc=5)
REM Li 1|1.3|8|9|10|10U:20(qc=5)
REM Fe 3|2.2|2.0|1.0|8|9|10|40:41:32(qc=5)
REM Fe d:4.0 
REM
CELL 1.54180    5.77508    6.80783   16.87873   90.00000   90.00000  115.09689
LATT -1
SFAC Li O  S  Fe 
Li     1 -0.0357820000000  0.3511700000000  0.0131870000000 1.0  -0.01
Li     1 -0.3869520000000 -0.3511700000000 -0.0131870000000 1.0  -0.01
Li     1  0.1130480000000 -0.3511700000000  0.5131870000000 1.0  -0.01
Li     1  0.4642180000000  0.3511700000000 -0.5131870000000 1.0  -0.01
Li     1  0.1472830000000  0.4005160000000 -0.1812690000000 1.0  -0.05
Li     1 -0.2532330000000 -0.4005160000000  0.1812690000000 1.0  -0.05
Li     1  0.2467670000000 -0.4005160000000  0.3187310000000 1.0  -0.05
Li     1  0.6472830000000  0.4005160000000 -0.3187310000000 1.0  -0.05
O      2 -0.0197280000000  0.5232170000000  0.2372550000000 1.0   0.19
O      2  0.4570550000000 -0.5232170000000 -0.2372550000000 1.0   0.19
O      2 -0.0429450000000 -0.5232170000000 -0.2627450000000 1.0   0.19
O      2  0.4802720000000  0.5232170000000  0.2627450000000 1.0   0.19
S      3  0.3547010000000  0.3393020000000  0.0676410000000 1.0   0.06
S      3  0.0153990000000 -0.3393020000000 -0.0676410000000 1.0   0.06
S      3 -0.4846010000000 -0.3393020000000 -0.4323590000000 1.0   0.06
S      3 -0.1452990000000  0.3393020000000  0.4323590000000 1.0   0.06
S      3 -0.3226070000000  0.0000000000000 -0.0000000000000 1.0   0.17
S      3  0.1773930000000  0.0000000000000  0.5000000000000 1.0   0.17
Fe     4 -0.2157800000000 -0.4172820000000 -0.1846130000000 1.0   3.82
Fe     4  0.2015020000000  0.4172820000000  0.1846130000000 1.0   3.82
Fe     4 -0.2984980000000  0.4172820000000  0.3153870000000 1.0   3.82
Fe     4  0.2842200000000 -0.4172820000000 -0.3153870000000 1.0   3.82
Fe     4  0.2863650000000  0.0000000000000 -0.0000000000000 1.0   3.80
Fe     4 -0.2136350000000  0.0000000000000  0.5000000000000 1.0   3.80
END
