TITL LFSO-Li2Fe3S3O-201026-112356-5d74cc 0.0132 163.322483 -4.33554610E+003 11.9994 12.0532 9 (Imm2) n - 1
REM
REM Run started: Mon, 26 Oct 2020 15:36:43 +0000 in /scratch/scratch/uccabz1/launch_tmp/launcher_2020-10-26-11-23-54-925075
REM CASTEP 19.11| from code version Version unavailable
REM Functional Perdew Burke Ernzerhof Relativity Koelling-Harmon Dispersion off
REM Cut-off 340.0000 eV Grid scale 1.7500 Gmax 16.5316 1/A FBSC none
REM MP grid 5 3 3 Offset 0.000 0.000 0.000 No. kpts 16 Spacing 0.07
REM Total runtime: 15589.9 s
REM Overall efficiency: 94.3333 %
REM
REM
REM
REM compiler GCC version 4.9.2
REM options -cpp -iprefix /scratch/UCL/applications/gcc/4.9.2/bin/../lib/gcc/x86_64-unknown-linux-gnu/4.9.2/ -mtune=corei7 -march=x86-64 -g -O2
REM COMMAND_LINE
REM seed 1635129840 -1273879732 -1742263327 -962865281 939759022 653215120 -59439112 -310761540 -1271695246 -2078172467 181806095 -328165772
REM
REM S 3|1.8|5|6|7|30:31:32(qc=5)
REM O 2|1.5|12|13|15|20:21(qc=5)
REM Li 1|1.3|8|9|10|10U:20(qc=5)
REM Fe 3|2.2|2.0|1.0|8|9|10|40:41:32(qc=5)
REM Fe d:4.0 
REM
CELL 1.54180    3.69944    7.68419    7.68419  121.00802   76.07110   76.07110
LATT -1
SFAC Li O  S  Fe 
Li     1 -0.2583400000000  0.1556650000000  0.3610140000000 1.0  -0.03
Li     1 -0.2583400000000  0.3610140000000  0.1556650000000 1.0  -0.03
O      2 -0.4462810000000  0.4462810000000  0.4462810000000 1.0   0.12
S      3  0.2623990000000 -0.5351230000000  0.0103250000000 1.0   0.10
S      3  0.2623990000000  0.0103250000000 -0.5351230000000 1.0   0.10
S      3 -0.4227310000000  0.9227310000000 -0.0772690000000 1.0   0.14
Fe     4  0.6134930000000 -0.9322870000000 -0.2947000000000 1.0   3.87
Fe     4  0.6134930000000 -0.2947000000000  0.0677130000000 1.0   3.87
Fe     4 -0.0640360000000 -0.4359640000000 -0.4359640000000 1.0   3.85
END
