TITL LFSO-Li5FeS2O2-201026-234136-ed286f -0.0562 176.659000 -3.34498516E+003 3.00010 3.58713 10 (Cm) n - 1
REM
REM Run started: Tue, 27 Oct 2020 02:20:54 +0000 in /lustre/scratch/uccabz1/launch_tmp/launcher_2020-10-26-23-41-34-734091
REM CASTEP 20.1 from code version af48c487+ pr-geom-scf-spinfix Tue Jun 2 15:39:59 2020 +0100
REM Functional Perdew Burke Ernzerhof Relativity Koelling-Harmon Dispersion off
REM Cut-off 340.0000 eV Grid scale 1.7500 Gmax 16.5316 1/A FBSC none
REM MP grid 7 3 3 Offset 0.000 0.000 0.000 No. kpts 22 Spacing 0.07
REM Total runtime: 12006.5 s
REM Overall efficiency: 85.5833 %
REM
REM
REM
REM compiler GCC version 4.9.2
REM options -cpp -iprefix /lustre/shared/ucl/apps/gcc/4.9.2/bin/../lib/gcc/x86_64-unknown-linux-gnu/4.9.2/ -mtune=corei7 -march=x86-64 -g -Og
REM COMMAND_LINE
REM seed 1427736690 1502866046 -535426177 -1809981336 107499226 -1559238906 227186126 1590329740 861657744 -151198648 523988394 1064618257
REM
REM S 3|1.8|5|6|7|30:31:32(qc=5)
REM O 2|1.5|12|13|15|20:21(qc=5)
REM Li 1|1.3|8|9|10|10U:20(qc=5)
REM Fe 3|2.2|2.0|1.0|8|9|10|40:41:32(qc=5)
REM Fe d:4.0 
REM
CELL 1.54180    5.70275   12.00036   12.00036   40.79904   27.74402   27.74402
LATT -1
SFAC Li O  S  Fe 
Li     1  0.2210730000000 -0.4819540000000  0.0063260000000 1.0  -0.02
Li     1  0.2210730000000 -0.9936740000000  0.5180460000000 1.0  -0.02
Li     1  0.3572500000000 -0.1924970000000  0.3687320000000 1.0   0.02
Li     1  0.3572500000000  0.3687320000000 -0.1924970000000 1.0   0.02
Li     1 -0.1050800000000 -0.8099330000000  0.1900670000000 1.0  -0.03
O      2  0.0047330000000 -0.0477280000000  0.2653560000000 1.0   0.02
O      2  0.0047330000000  0.2653560000000 -0.0477280000000 1.0   0.02
S      3 -0.5829020000000  0.0835810000000 -0.3239260000000 1.0  -0.08
S      3 -0.5829020000000 -0.3239260000000  0.0835810000000 1.0  -0.08
Fe     4  0.1429630000000  0.0156630000000  0.0156630000000 1.0   3.16
END
