TITL LFSO-Li5FeS2O2-201025-234101-1be9ed 0.0439 306.860396 -6.68959107E+003 8.00231 8.15271 20 (Pc) n - 1
REM
REM Run started: Mon, 26 Oct 2020 06:30:20 +0000 in /lustre/scratch/uccabz1/launch_tmp/launcher_2020-10-25-23-40-59-549104
REM CASTEP 20.1 from code version af48c487+ pr-geom-scf-spinfix Tue Jun 2 15:39:59 2020 +0100
REM Functional Perdew Burke Ernzerhof Relativity Koelling-Harmon Dispersion off
REM Cut-off 340.0000 eV Grid scale 1.7500 Gmax 16.5316 1/A FBSC none
REM MP grid 4 3 2 Offset 0.000 0.000 0.000 No. kpts 6 Spacing 0.07
REM Total runtime: 26043 s
REM Overall efficiency: 89 %
REM
REM
REM
REM compiler GCC version 4.9.2
REM options -cpp -iprefix /lustre/shared/ucl/apps/gcc/4.9.2/bin/../lib/gcc/x86_64-unknown-linux-gnu/4.9.2/ -mtune=corei7 -march=x86-64 -g -Og
REM COMMAND_LINE
REM seed 624921289 -1736604481 -259470937 1118176187 -513285229 1944183825 1497518269 1185172023 834608156 560759032 224168545 -890104062
REM
REM S 3|1.8|5|6|7|30:31:32(qc=5)
REM O 2|1.5|12|13|15|20:21(qc=5)
REM Li 1|1.3|8|9|10|10U:20(qc=5)
REM Fe 3|2.2|2.0|1.0|8|9|10|40:41:32(qc=5)
REM Fe d:4.0 
REM
CELL 1.54180    4.33485    5.75846   12.85129   90.00000   90.00000  106.94968
LATT -1
SFAC Li O  S  Fe 
Li     1  0.0629930000000 -0.3807830000000 -0.3406810000000 1.0   0.00
Li     1  0.0629930000000  0.1192170000000  0.3406810000000 1.0   0.00
Li     1 -0.3240800000000  0.0516650000000  0.0917290000000 1.0  -0.00
Li     1 -0.3240800000000  0.5516650000000 -0.0917290000000 1.0  -0.00
Li     1  0.2202650000000 -0.3227870000000  0.0206980000000 1.0   0.00
Li     1  0.2202650000000  0.1772130000000 -0.0206980000000 1.0   0.00
Li     1  0.2065830000000  0.0479830000000 -0.2162020000000 1.0  -0.02
Li     1  0.2065830000000 -0.4520170000000  0.2162020000000 1.0  -0.02
Li     1 -0.1569100000000  0.4089610000000  0.4221520000000 1.0  -0.07
Li     1 -0.1569100000000 -0.0910390000000 -0.4221520000000 1.0  -0.07
O      2 -0.3075700000000  0.0519420000000  0.4558910000000 1.0   0.17
O      2 -0.3075700000000 -0.4480580000000 -0.4558910000000 1.0   0.17
O      2  0.2200260000000 -0.5419400000000  0.3536490000000 1.0   0.13
O      2  0.2200260000000 -0.0419400000000 -0.3536490000000 1.0   0.13
S      3  0.1370160000000 -0.0359790000000  0.1525400000000 1.0   0.01
S      3  0.1370160000000  0.4640210000000 -0.1525400000000 1.0   0.01
S      3  0.6366260000000  0.4776560000000  0.1064760000000 1.0   0.00
S      3  0.6366260000000 -0.0223440000000 -0.1064760000000 1.0   0.00
Fe     4  0.4751800000000 -0.2899560000000  0.4329110000000 1.0   3.79
Fe     4  0.4751800000000  0.2100440000000 -0.4329110000000 1.0   3.79
END
