TITL LFSO-Li3FeS2O-201025-050015-f9d636 -0.0050 221.987404 -5.01509410E+003 6.00147 6.89754 14 (Cc) n - 1
REM
REM Run started: Sun, 25 Oct 2020 10:02:35 +0000 in /lustre/scratch/uccabz1/launch_tmp/launcher_2020-10-25-05-00-13-495821
REM CASTEP 20.1 from code version af48c487+ pr-geom-scf-spinfix Tue Jun 2 15:39:59 2020 +0100
REM Functional Perdew Burke Ernzerhof Relativity Koelling-Harmon Dispersion off
REM Cut-off 340.0000 eV Grid scale 1.7500 Gmax 16.5316 1/A FBSC none
REM MP grid 5 2 2 Offset 0.000 0.000 0.000 No. kpts 10 Spacing 0.07
REM Total runtime: 19393 s
REM Overall efficiency: 79.3846 %
REM
REM
REM
REM compiler GCC version 4.9.2
REM options -cpp -iprefix /lustre/shared/ucl/apps/gcc/4.9.2/bin/../lib/gcc/x86_64-unknown-linux-gnu/4.9.2/ -mtune=corei7 -march=x86-64 -g -Og
REM COMMAND_LINE
REM seed 1960936850 -220687755 777159752 -1169671781 1637391969 -1009719129 -2040937931 402753538 -78537452 498736116 2030688247 -182896519
REM
REM S 3|1.8|5|6|7|30:31:32(qc=5)
REM O 2|1.5|12|13|15|20:21(qc=5)
REM Li 1|1.3|8|9|10|10U:20(qc=5)
REM Fe 3|2.2|2.0|1.0|8|9|10|40:41:32(qc=5)
REM Fe d:4.0 
REM
CELL 1.54180    3.26993    7.80889    8.95396   98.90476  100.52105   90.00000
LATT -1
SFAC Li O  S  Fe 
Li     1  0.3094510000000  0.0109580000000 -0.3236980000000 1.0   0.00
Li     1  0.3668510000000  0.5109580000000 -0.3236980000000 1.0   0.00
Li     1 -0.0869120000000  0.2902940000000 -0.1768580000000 1.0  -0.00
Li     1 -0.0899450000000 -0.2097060000000 -0.1768580000000 1.0  -0.00
Li     1 -0.5155700000000 -0.4152890000000 -0.0335900000000 1.0   0.00
Li     1  0.4819800000000  0.0847110000000 -0.0335900000000 1.0   0.00
O      2 -0.0689460000000 -0.4557330000000 -0.1890190000000 1.0  -0.01
O      2 -0.1200730000000  0.0442670000000 -0.1890190000000 1.0  -0.01
S      3  0.3102910000000  0.3597690000000  0.1210770000000 1.0  -0.08
S      3 -0.1892140000000 -0.1402310000000  0.1210770000000 1.0  -0.08
S      3  0.0000010000000 -0.2249220000000 -0.5316840000000 1.0  -0.12
S      3 -0.5316840000000  0.2750780000000 -0.5316840000000 1.0  -0.12
Fe     4 -0.5902790000000 -0.1640150000000  0.3008650000000 1.0   3.20
Fe     4 -0.1088570000000  0.3359850000000  0.3008650000000 1.0   3.20
END
