TITL LFSO-LiFe3S4O-201028-110600-ec5b99 0.0547 217.528303 -4.43806447E+003 9.00000 11.2862 9 (P3) n - 1
REM
REM Run started: Wed, 28 Oct 2020 13:03:01 +0000 in /scratch/scratch/uccabz1/launch_tmp/launcher_2020-10-28-11-05-58-499324
REM CASTEP 19.11| from code version Version unavailable
REM Functional Perdew Burke Ernzerhof Relativity Koelling-Harmon Dispersion off
REM Cut-off 340.0000 eV Grid scale 1.7500 Gmax 16.5316 1/A FBSC none
REM MP grid 3 3 3 Offset 0.000 0.000 0.000 No. kpts 8 Spacing 0.07
REM Total runtime: 7645.82 s
REM Overall efficiency: 80.8333 %
REM
REM
REM
REM compiler GCC version 4.9.2
REM options -cpp -iprefix /scratch/UCL/applications/gcc/4.9.2/bin/../lib/gcc/x86_64-unknown-linux-gnu/4.9.2/ -mtune=corei7 -march=x86-64 -g -O2
REM COMMAND_LINE
REM seed 2129752046 -1481160189 -2083275507 -1511948682 -1842074996 -495118240 -2066498215 1857023714 454228801 1350724980 -2050587540 1793089007
REM
REM S 3|1.8|5|6|7|30:31:32(qc=5)
REM O 2|1.5|12|13|15|20:21(qc=5)
REM Li 1|1.3|8|9|10|10U:20(qc=5)
REM Fe 3|2.2|2.0|1.0|8|9|10|40:41:32(qc=5)
REM Fe d:4.0 
REM
CELL 1.54180    6.03335    6.03335    6.90031   90.00000   90.00000  120.00000
LATT -1
SFAC Li O  S  Fe 
Li     1  0.3333330000000 -0.3333330000000  0.1222240000000 1.0   0.03
O      2 -0.0000000000000  0.0000000000000  0.5795330000000 1.0   0.05
S      3 -0.3663020000000  0.0196820000000 -0.1246150000000 1.0  -0.35
S      3  0.3859840000000  0.3663020000000 -0.1246150000000 1.0  -0.35
S      3 -0.0196820000000 -0.3859840000000 -0.1246150000000 1.0  -0.35
S      3  0.3333330000000 -0.3333330000000  0.4790880000000 1.0  -0.28
Fe     4  0.0203860000000  0.3092550000000 -0.3082170000000 1.0   3.41
Fe     4  0.2888690000000 -0.0203860000000 -0.3082170000000 1.0   3.41
Fe     4 -0.3092550000000 -0.2888690000000 -0.3082170000000 1.0   3.41
END
