TITL LFSO-Li2FeSO-201025-061828-7a7b13 -0.5633 427.700163 -7.99862779E+003 -13.9655 14.4410 20 (P3) n - 1
REM
REM Run started: Mon, 26 Oct 2020 09:12:44 +0000 in /lustre/scratch/uccabz1/launch_tmp/launcher_2020-10-25-06-18-25-672178
REM CASTEP 20.1 from code version af48c487+ pr-geom-scf-spinfix Tue Jun 2 15:39:59 2020 +0100
REM Functional Perdew Burke Ernzerhof Relativity Koelling-Harmon Dispersion off
REM Cut-off 340.0000 eV Grid scale 1.7500 Gmax 16.5316 1/A FBSC none
REM MP grid 3 3 2 Offset 0.000 0.000 0.000 No. kpts 5 Spacing 0.07
REM Total runtime: 99037.8 s
REM Overall efficiency: 76.4167 %
REM
REM
REM
REM compiler GCC version 4.9.2
REM options -cpp -iprefix /lustre/shared/ucl/apps/gcc/4.9.2/bin/../lib/gcc/x86_64-unknown-linux-gnu/4.9.2/ -mtune=corei7 -march=x86-64 -g -Og
REM COMMAND_LINE
REM seed -1627363069 1135384353 645416546 952747088 479133498 424486445 113828769 -1965101391 -1107524899 582798928 232179817 1297123572
REM
REM S 3|1.8|5|6|7|30:31:32(qc=5)
REM O 2|1.5|12|13|15|20:21(qc=5)
REM Li 1|1.3|8|9|10|10U:20(qc=5)
REM Fe 3|2.2|2.0|1.0|8|9|10|40:41:32(qc=5)
REM Fe d:4.0 
REM
CELL 1.54180    7.04228    7.04228    9.95824   90.00000   90.00000  120.00000
LATT -1
SFAC Li O  S  Fe 
Li     1 -0.0029100000000 -0.3172790000000  0.4884590000000 1.0  -0.00
Li     1  0.3172790000000  0.3143680000000  0.4884590000000 1.0  -0.00
Li     1 -0.3143680000000  0.0029100000000  0.4884590000000 1.0  -0.00
Li     1 -0.2476880000000  0.1245370000000  0.0613340000000 1.0   0.06
Li     1 -0.1245370000000 -0.3722250000000  0.0613340000000 1.0   0.06
Li     1  0.3722250000000  0.2476880000000  0.0613340000000 1.0   0.06
Li     1  0.3333330000000 -0.3333330000000 -0.0975730000000 1.0   0.13
Li     1  0.3333330000000 -0.3333330000000 -0.5209590000000 1.0  -0.02
O      2 -0.4759820000000 -0.1257450000000 -0.3437830000000 1.0  -0.01
O      2  0.1257450000000 -0.3502370000000 -0.3437830000000 1.0  -0.01
O      2  0.3502370000000  0.4759820000000 -0.3437830000000 1.0  -0.01
O      2  0.3333330000000 -0.3333330000000 -0.2993800000000 1.0   0.00
S      3 -0.3475690000000 -0.3560360000000  0.3836130000000 1.0  -0.13
S      3  0.3560360000000  0.0084670000000  0.3836130000000 1.0  -0.13
S      3 -0.0084670000000  0.3475690000000  0.3836130000000 1.0  -0.13
S      3 -0.0000000000000  0.0000000000000  0.0637570000000 1.0   0.02
Fe     4 -0.4273940000000 -0.2854590000000  0.1681260000000 1.0  -3.32
Fe     4  0.2854590000000 -0.1419340000000  0.1681260000000 1.0  -3.32
Fe     4  0.1419340000000  0.4273940000000  0.1681260000000 1.0  -3.32
Fe     4 -0.3333330000000  0.3333330000000  0.2969650000000 1.0  -3.88
END
