TITL LFSO-Li4Fe3S4O-201029-171009-65fcd9 0.3328 298.774434 -5.03789058E+003 2.00004 11.6455 12 (C2/m) n - 1
REM
REM Run started: Thu, 29 Oct 2020 23:12:31 +0000 in /scratch/scratch/uccabz1/launch_tmp/launcher_2020-10-29-17-10-07-944767
REM CASTEP 19.11| from code version Version unavailable
REM Functional Perdew Burke Ernzerhof Relativity Koelling-Harmon Dispersion off
REM Cut-off 340.0000 eV Grid scale 1.7500 Gmax 16.5316 1/A FBSC none
REM MP grid 4 3 2 Offset 0.000 0.000 0.000 No. kpts 10 Spacing 0.07
REM Total runtime: 23911.3 s
REM Overall efficiency: 87.6667 %
REM
REM
REM
REM compiler GCC version 4.9.2
REM options -cpp -iprefix /scratch/UCL/applications/gcc/4.9.2/bin/../lib/gcc/x86_64-unknown-linux-gnu/4.9.2/ -mtune=corei7 -march=x86-64 -g -O2
REM COMMAND_LINE
REM seed 48849451 1400833372 -795497599 1971934005 1657696645 748674438 -1208859816 2015158981 407398741 1284008769 -785941417 -1726429324
REM
REM S 3|1.8|5|6|7|30:31:32(qc=5)
REM O 2|1.5|12|13|15|20:21(qc=5)
REM Li 1|1.3|8|9|10|10U:20(qc=5)
REM Fe 3|2.2|2.0|1.0|8|9|10|40:41:32(qc=5)
REM Fe d:4.0 
REM
CELL 1.54180    4.50565    9.34659    9.74048   61.32890  105.51504  123.88502
LATT -1
SFAC Li O  S  Fe 
Li     1 -0.1948020000000 -0.0916730000000 -0.1622980000000 1.0   0.01
Li     1  0.1948020000000  0.2539710000000 -0.1622980000000 1.0   0.01
Li     1  0.1948020000000  0.0916730000000  0.1622980000000 1.0   0.01
Li     1 -0.1948020000000 -0.2539710000000  0.1622980000000 1.0   0.01
O      2  0.0000000000000  0.0000000000000  0.0000000000000 1.0  -0.17
S      3  0.2469380000000 -0.3324500000000  0.2185510000000 1.0  -0.15
S      3 -0.2469380000000  0.1139000000000  0.2185510000000 1.0  -0.15
S      3 -0.2469380000000  0.3324500000000 -0.2185510000000 1.0  -0.15
S      3  0.2469380000000 -0.1139000000000 -0.2185510000000 1.0  -0.15
Fe     4  0.0000000000000 -0.4201820000000 -0.1596360000000 1.0   3.40
Fe     4 -0.0000000000000  0.4201820000000  0.1596360000000 1.0   3.40
Fe     4 -0.5000000000000  0.0000000000000  0.0000000000000 1.0  -4.04
END
