TITL LFSO-Li4Fe2S3O-201026-044104-ba7e65 0.1965 419.511807 -7744.992338325 -14.4027 15.0567 20 (P-1) n - 1
REM
REM Run started: Tue, 27 Oct 2020 10:35:51 +0000 in /scratch/scratch/uccabz1/launch_tmp/launcher_2020-10-26-04-41-02-940220
REM CASTEP 19.11| from code version Version unavailable
REM Functional Perdew Burke Ernzerhof Relativity Koelling-Harmon Dispersion off
REM Cut-off 340.0000 eV Grid scale 1.7500 Gmax 16.5316 1/A FBSC none
REM MP grid 4 4 2 Offset 0.000 0.000 0.000 No. kpts 16 Spacing 0.07
REM Total runtime: 107677 s
REM Overall efficiency: 83.9091 %
REM
REM
REM
REM compiler GCC version 4.9.2
REM options -cpp -iprefix /scratch/UCL/applications/gcc/4.9.2/bin/../lib/gcc/x86_64-unknown-linux-gnu/4.9.2/ -mtune=corei7 -march=x86-64 -g -O2
REM COMMAND_LINE
REM seed -1681882147 -1530982638 1136604162 -1255894327 1216837382 -1111242744 -162204977 -1671009359 -1551462341 -898943212 579954700 1782805170
REM
REM S 3|1.8|5|6|7|30:31:32(qc=5)
REM O 2|1.5|12|13|15|20:21(qc=5)
REM Li 1|1.3|8|9|10|10U:20(qc=5)
REM Fe 3|2.2|2.0|1.0|8|9|10|40:41:32(qc=5)
REM Fe d:4.0 
REM
CELL 1.54180    8.65522    9.44689   13.98857  128.58501   72.97122  146.49874
LATT -1
SFAC Li O  S  Fe 
Li     1  0.4403170000000 -0.1815060000000  0.2982470000000 1.0   0.06
Li     1 -0.4403170000000  0.1815060000000 -0.2982470000000 1.0   0.06
Li     1  0.1089700000000 -0.2018450000000  0.3549540000000 1.0   0.03
Li     1 -0.1089700000000  0.2018450000000 -0.3549540000000 1.0   0.03
Li     1 -0.4213190000000 -0.0011030000000  0.1708480000000 1.0   0.01
Li     1  0.4213190000000  0.0011030000000 -0.1708480000000 1.0   0.01
Li     1 -0.2350080000000 -0.0274920000000 -0.2486660000000 1.0   0.00
Li     1  0.2350080000000  0.0274920000000  0.2486660000000 1.0   0.00
O      2 -0.3814410000000  0.0233270000000 -0.2858970000000 1.0  -0.12
O      2  0.3814410000000 -0.0233270000000  0.2858970000000 1.0  -0.12
S      3 -0.2091020000000 -0.2484470000000  0.4786490000000 1.0  -0.04
S      3  0.2091020000000  0.2484470000000 -0.4786490000000 1.0  -0.04
S      3 -0.1032100000000  0.4904930000000 -0.3696010000000 1.0  -0.06
S      3  0.1032100000000 -0.4904930000000  0.3696010000000 1.0  -0.06
S      3  0.2972090000000 -0.5203120000000 -0.0602040000000 1.0  -0.01
S      3 -0.2972090000000  0.5203120000000  0.0602040000000 1.0  -0.01
Fe     4  0.2672830000000  0.2934050000000  0.0139410000000 1.0  -3.29
Fe     4 -0.2672830000000 -0.2934050000000 -0.0139410000000 1.0  -3.29
Fe     4  0.2102280000000 -0.4752320000000 -0.4653780000000 1.0  -3.81
Fe     4 -0.2102280000000  0.4752320000000  0.4653780000000 1.0  -3.81
END
