TITL LFSO-Li6FeS3O-201027-111208-ba0573 0.0768 363.038887 -6.82110945E+003 8.00000 8.13183 22 (P3) n - 1
REM
REM Run started: Tue, 27 Oct 2020 16:54:17 +0000 in /lustre/scratch/uccabz1/launch_tmp/launcher_2020-10-27-11-12-06-772759
REM CASTEP 20.1 from code version af48c487+ pr-geom-scf-spinfix Tue Jun 2 15:39:59 2020 +0100
REM Functional Perdew Burke Ernzerhof Relativity Koelling-Harmon Dispersion off
REM Cut-off 340.0000 eV Grid scale 1.7500 Gmax 16.5316 1/A FBSC none
REM MP grid 2 2 3 Offset 0.000 0.000 0.000 No. kpts 6 Spacing 0.07
REM Total runtime: 20970.5 s
REM Overall efficiency: 97.4444 %
REM
REM
REM
REM compiler GCC version 4.9.2
REM options -cpp -iprefix /lustre/shared/ucl/apps/gcc/4.9.2/bin/../lib/gcc/x86_64-unknown-linux-gnu/4.9.2/ -mtune=corei7 -march=x86-64 -g -Og
REM COMMAND_LINE
REM seed -513205705 164372214 -27081509 1789201707 -480976933 -505364377 -1438103520 1484873231 -1263347966 -2086960994 535777595 930738965
REM
REM S 3|1.8|5|6|7|30:31:32(qc=5)
REM O 2|1.5|12|13|15|20:21(qc=5)
REM Li 1|1.3|8|9|10|10U:20(qc=5)
REM Fe 3|2.2|2.0|1.0|8|9|10|40:41:32(qc=5)
REM Fe d:4.0 
REM
CELL 1.54180    8.25177    8.25177    6.15642   90.00000   90.00000  120.00000
LATT -1
SFAC Li O  S  Fe 
Li     1 -0.1368180000000 -0.5150700000000  0.2128930000000 1.0  -0.01
Li     1  0.5150700000000  0.3782520000000  0.2128930000000 1.0  -0.01
Li     1 -0.3782520000000  0.1368180000000  0.2128930000000 1.0  -0.01
Li     1 -0.4017150000000  0.1327800000000 -0.2357670000000 1.0  -0.01
Li     1 -0.1327800000000  0.4655050000000 -0.2357670000000 1.0  -0.01
Li     1 -0.4655050000000  0.4017150000000 -0.2357670000000 1.0  -0.01
Li     1 -0.1761390000000 -0.2463250000000 -0.1185790000000 1.0   0.02
Li     1  0.2463250000000  0.0701860000000 -0.1185790000000 1.0   0.02
Li     1 -0.0701860000000  0.1761390000000 -0.1185790000000 1.0   0.02
Li     1  0.1806610000000  0.3156880000000 -0.5223630000000 1.0  -0.03
Li     1 -0.3156880000000 -0.1350270000000 -0.5223630000000 1.0  -0.03
Li     1  0.1350270000000 -0.1806610000000 -0.5223630000000 1.0  -0.03
O      2  0.3333330000000 -0.3333330000000  0.5079450000000 1.0   0.18
O      2 -0.3333330000000  0.3333330000000 -0.0010040000000 1.0   0.01
S      3 -0.3683150000000 -0.1166720000000  0.0061990000000 1.0   0.08
S      3  0.1166720000000 -0.2516430000000  0.0061990000000 1.0   0.08
S      3  0.2516430000000  0.3683150000000  0.0061990000000 1.0   0.08
S      3  0.3582300000000  0.1430790000000  0.5202550000000 1.0   0.01
S      3 -0.1430790000000  0.2151510000000  0.5202550000000 1.0   0.01
S      3 -0.2151510000000 -0.3582300000000  0.5202550000000 1.0   0.01
Fe     4  0.3333330000000 -0.3333330000000  0.2069880000000 1.0   3.79
Fe     4  0.3333330000000 -0.3333330000000 -0.1866110000000 1.0   3.82
END
