TITL LFSO-Li3FeS2O-201025-051546-6b7ac5 -0.0070 371.433586 -7.52090618E+003 11.0020 11.5532 21 (P2) n - 1
REM
REM Run started: Sun, 25 Oct 2020 20:22:57 +0000 in /scratch/scratch/uccabz1/launch_tmp/launcher_2020-10-25-05-15-45-041530
REM CASTEP 19.11| from code version Version unavailable
REM Functional Perdew Burke Ernzerhof Relativity Koelling-Harmon Dispersion off
REM Cut-off 340.0000 eV Grid scale 1.7500 Gmax 16.5316 1/A FBSC none
REM MP grid 4 2 2 Offset 0.000 0.000 0.000 No. kpts 4 Spacing 0.07
REM Total runtime: 57688.5 s
REM Overall efficiency: 75.8462 %
REM
REM
REM
REM compiler GCC version 4.9.2
REM options -cpp -iprefix /scratch/UCL/applications/gcc/4.9.2/bin/../lib/gcc/x86_64-unknown-linux-gnu/4.9.2/ -mtune=corei7 -march=x86-64 -g -O2
REM COMMAND_LINE
REM seed -1419467183 179813398 667982056 793923116 1823462391 48584099 -574142404 -626906560 1374532525 1496282185 -505039070 -701938289
REM
REM S 3|1.8|5|6|7|30:31:32(qc=5)
REM O 2|1.5|12|13|15|20:21(qc=5)
REM Li 1|1.3|8|9|10|10U:20(qc=5)
REM Fe 3|2.2|2.0|1.0|8|9|10|40:41:32(qc=5)
REM Fe d:4.0 
REM
CELL 1.54180    4.11338   10.36247   11.51035  130.79436   90.00000   90.00000
LATT -1
SFAC Li O  S  Fe 
Li     1 -0.4412490000000 -0.3306740000000 -0.4987000000000 1.0   0.00
Li     1 -0.4412490000000  0.3306740000000  0.4987000000000 1.0   0.00
Li     1  0.0250160000000 -0.0760830000000 -0.3077480000000 1.0   0.01
Li     1  0.0250160000000  0.0760830000000  0.3077480000000 1.0   0.01
Li     1  0.1035460000000 -0.4956130000000 -0.3878980000000 1.0  -0.01
Li     1  0.1035460000000  0.4956130000000  0.3878980000000 1.0  -0.01
Li     1  0.5212430000000  0.2267110000000 -0.0200690000000 1.0   0.00
Li     1  0.5212430000000 -0.2267110000000  0.0200690000000 1.0   0.00
Li     1  0.0034690000000  0.0000000000000  0.0000000000000 1.0  -0.00
O      2 -0.0024830000000 -0.2645780000000  0.4937990000000 1.0   0.08
O      2 -0.0024830000000  0.2645780000000 -0.4937990000000 1.0   0.08
O      2  0.4345400000000 -0.5000000000000 -0.5000000000000 1.0  -0.04
S      3  0.0221220000000  0.2241170000000 -0.1492300000000 1.0  -0.02
S      3  0.0221220000000 -0.2241170000000  0.1492300000000 1.0  -0.02
S      3 -0.4888500000000 -0.4599010000000  0.2138480000000 1.0  -0.06
S      3 -0.4888500000000  0.4599010000000 -0.2138480000000 1.0  -0.06
S      3  0.5025410000000 -0.1124230000000 -0.1253930000000 1.0  -0.01
S      3  0.5025410000000  0.1124230000000  0.1253930000000 1.0  -0.01
Fe     4  0.0164820000000 -0.2843410000000  0.3200200000000 1.0   3.63
Fe     4  0.0164820000000  0.2843410000000 -0.3200200000000 1.0   3.63
Fe     4  0.3080390000000 -0.5000000000000  0.0000000000000 1.0   3.80
END
