TITL LFSO-Li5FeSO3-201026-222404-0ea147 0.0072 287.580400 -6.95660739E+003 6.14625 7.11298 20 (P42) n - 1
REM
REM Run started: Mon, 26 Oct 2020 22:59:31 +0000 in /lustre/scratch/uccabz1/launch_tmp/launcher_2020-10-26-22-24-02-292442
REM CASTEP 20.1 from code version af48c487+ pr-geom-scf-spinfix Tue Jun 2 15:39:59 2020 +0100
REM Functional Perdew Burke Ernzerhof Relativity Koelling-Harmon Dispersion off
REM Cut-off 340.0000 eV Grid scale 1.7500 Gmax 16.5316 1/A FBSC none
REM MP grid 3 3 2 Offset 0.000 0.000 0.000 No. kpts 3 Spacing 0.07
REM Total runtime: 2275.31 s
REM Overall efficiency: 77.8333 %
REM
REM
REM
REM compiler GCC version 4.9.2
REM options -cpp -iprefix /lustre/shared/ucl/apps/gcc/4.9.2/bin/../lib/gcc/x86_64-unknown-linux-gnu/4.9.2/ -mtune=corei7 -march=x86-64 -g -Og
REM COMMAND_LINE
REM seed -671644726 -1379548129 -149599601 -1300299125 2056082861 1828747189 -659833098 1663306812 406591676 787421726 -2109310428 -1750851441
REM
REM S 3|1.8|5|6|7|30:31:32(qc=5)
REM O 2|1.5|12|13|15|20:21(qc=5)
REM Li 1|1.3|8|9|10|10U:20(qc=5)
REM Fe 3|2.2|2.0|1.0|8|9|10|40:41:32(qc=5)
REM Fe d:4.0 
REM
CELL 1.54180    5.38365    5.38365    9.92214   90.00000   90.00000   90.00000
LATT -1
SFAC Li O  S  Fe 
Li     1 -0.2602320000000 -0.0152380000000  0.1183200000000 1.0  -0.01
Li     1  0.2602320000000  0.0152380000000  0.1183200000000 1.0  -0.01
Li     1  0.0152380000000 -0.2602320000000 -0.3816800000000 1.0  -0.01
Li     1 -0.0152380000000  0.2602320000000 -0.3816800000000 1.0  -0.01
Li     1 -0.4489750000000 -0.2135310000000  0.3928340000000 1.0  -0.00
Li     1  0.4489750000000  0.2135310000000  0.3928340000000 1.0  -0.00
Li     1  0.2135310000000 -0.4489750000000 -0.1071660000000 1.0  -0.00
Li     1 -0.2135310000000  0.4489750000000 -0.1071660000000 1.0  -0.00
Li     1  0.0000000000000  0.0000000000000 -0.0995270000000 1.0   0.01
Li     1  0.0000000000000  0.0000000000000  0.4004730000000 1.0   0.01
O      2  0.0219790000000 -0.2475160000000  0.0396000000000 1.0   0.01
O      2 -0.0219790000000  0.2475160000000  0.0396000000000 1.0   0.01
O      2  0.2475160000000  0.0219790000000 -0.4604000000000 1.0   0.01
O      2 -0.2475160000000 -0.0219790000000 -0.4604000000000 1.0   0.01
O      2  0.5000000000000  0.0000000000000  0.2504410000000 1.0   0.01
O      2  0.0000000000000 -0.5000000000000 -0.2495590000000 1.0   0.01
S      3 -0.5000000000000  0.0000000000000 -0.1226460000000 1.0  -0.06
S      3  0.0000000000000  0.5000000000000  0.3773540000000 1.0  -0.06
Fe     4 -0.5000000000000  0.0000000000000 -0.3443440000000 1.0   3.13
Fe     4  0.0000000000000  0.5000000000000  0.1556560000000 1.0   3.13
END
