TITL LFSO-Li6FeSO3-201027-212805-64459a -0.0761 356.476585 -7.35896953E+003 8.00000 8.36120 22 (I-4) n - 1
REM
REM Run started: Tue, 27 Oct 2020 23:11:16 +0000 in /scratch/scratch/uccabz1/launch_tmp/launcher_2020-10-27-21-28-03-473461
REM CASTEP 19.11| from code version Version unavailable
REM Functional Perdew Burke Ernzerhof Relativity Koelling-Harmon Dispersion off
REM Cut-off 340.0000 eV Grid scale 1.7500 Gmax 16.5316 1/A FBSC none
REM MP grid 3 3 3 Offset 0.000 0.000 0.000 No. kpts 6 Spacing 0.07
REM Total runtime: 6475.77 s
REM Overall efficiency: 68.4545 %
REM
REM
REM
REM compiler GCC version 4.9.2
REM options -cpp -iprefix /scratch/UCL/applications/gcc/4.9.2/bin/../lib/gcc/x86_64-unknown-linux-gnu/4.9.2/ -mtune=corei7 -march=x86-64 -g -O2
REM COMMAND_LINE
REM seed -1487947033 211175770 -31431054 -462099642 1353198104 695908317 1465953273 -598640597 1635818409 474991119 -1058809059 -1721110290
REM
REM S 3|1.8|5|6|7|30:31:32(qc=5)
REM O 2|1.5|12|13|15|20:21(qc=5)
REM Li 1|1.3|8|9|10|10U:20(qc=5)
REM Fe 3|2.2|2.0|1.0|8|9|10|40:41:32(qc=5)
REM Fe d:4.0 
REM
CELL 1.54180    7.42159    7.42159    8.33226  116.44588  116.44588   90.00000
LATT -1
SFAC Li O  S  Fe 
Li     1 -0.2856620000000  0.3098290000000 -0.2124700000000 1.0  -0.01
Li     1  0.0731920000000 -0.5222990000000 -0.2124700000000 1.0  -0.01
Li     1 -0.3098290000000 -0.0731920000000  0.2124700000000 1.0  -0.01
Li     1  0.5222990000000  0.2856620000000  0.2124700000000 1.0  -0.01
Li     1  0.2762210000000 -0.4849420000000  0.1804550000000 1.0   0.01
Li     1 -0.0957660000000 -0.3346030000000  0.1804550000000 1.0   0.01
Li     1  0.4849420000000  0.0957660000000 -0.1804550000000 1.0   0.01
Li     1  0.3346030000000 -0.2762210000000 -0.1804550000000 1.0   0.01
Li     1 -0.0045340000000  0.2482930000000 -0.0016040000000 1.0  -0.04
Li     1  0.0029290000000 -0.2498970000000 -0.0016040000000 1.0  -0.04
Li     1 -0.2482930000000 -0.0029290000000  0.0016040000000 1.0  -0.04
Li     1  0.2498970000000  0.0045340000000  0.0016040000000 1.0  -0.04
O      2 -0.0555910000000 -0.0629460000000  0.1980220000000 1.0   0.11
O      2  0.2536130000000  0.2609680000000  0.1980220000000 1.0   0.11
O      2  0.0629460000000 -0.2536130000000 -0.1980220000000 1.0   0.11
O      2 -0.2609680000000  0.0555910000000 -0.1980220000000 1.0   0.11
O      2 -0.0077090000000  0.4922910000000 -0.0154180000000 1.0   0.01
O      2 -0.4922910000000  0.0077090000000  0.0154180000000 1.0   0.01
S      3 -0.3585720000000 -0.3585720000000  0.2828550000000 1.0   0.06
S      3  0.3585720000000  0.3585720000000 -0.2828550000000 1.0   0.06
Fe     4 -0.1779360000000 -0.1779360000000 -0.3558720000000 1.0   3.79
Fe     4  0.1779360000000  0.1779360000000  0.3558720000000 1.0   3.79
END
