TITL LFSO-Li2Fe4S4O-201024-092648-838a37 -0.0757 330.112717 -5.49671350E+003 14.9409 15.3513 11 (P3) n - 1
REM
REM Run started: Sat, 24 Oct 2020 12:51:27 +0100 in /lustre/scratch/uccabz1/launch_tmp/launcher_2020-10-24-08-26-46-322442
REM CASTEP 20.1 from code version af48c487+ pr-geom-scf-spinfix Tue Jun 2 15:39:59 2020 +0100
REM Functional Perdew Burke Ernzerhof Relativity Koelling-Harmon Dispersion off
REM Cut-off 340.0000 eV Grid scale 1.7500 Gmax 16.5316 1/A FBSC none
REM MP grid 3 3 2 Offset 0.000 0.000 0.000 No. kpts 5 Spacing 0.07
REM Total runtime: 13319.8 s
REM Overall efficiency: 85 %
REM
REM
REM
REM compiler GCC version 4.9.2
REM options -cpp -iprefix /lustre/shared/ucl/apps/gcc/4.9.2/bin/../lib/gcc/x86_64-unknown-linux-gnu/4.9.2/ -mtune=corei7 -march=x86-64 -g -Og
REM COMMAND_LINE
REM seed 791347427 895750371 -1677193594 -397994341 -901322711 -11302294 -78757929 1348754146 597333590 -1980342788 1652834328 -1415237092
REM
REM S 3|1.8|5|6|7|30:31:32(qc=5)
REM O 2|1.5|12|13|15|20:21(qc=5)
REM Li 1|1.3|8|9|10|10U:20(qc=5)
REM Fe 3|2.2|2.0|1.0|8|9|10|40:41:32(qc=5)
REM Fe d:4.0 
REM
CELL 1.54180    5.73405    5.73405   11.59335   90.00000   90.00000  120.00000
LATT -1
SFAC Li O  S  Fe 
Li     1 -0.0000000000000  0.0000000000000  0.2644440000000 1.0   0.02
Li     1 -0.3333330000000  0.3333330000000 -0.6014110000000 1.0  -0.02
O      2  0.3333330000000 -0.3333330000000 -0.2660660000000 1.0   0.22
S      3 -0.3532190000000 -0.2528760000000  0.4057850000000 1.0  -0.01
S      3  0.1003430000000  0.3532190000000  0.4057850000000 1.0  -0.01
S      3  0.2528760000000 -0.1003430000000  0.4057850000000 1.0  -0.01
S      3 -0.3333330000000  0.3333330000000 -0.1771140000000 1.0   0.11
Fe     4  0.2756500000000  0.3033360000000 -0.2648860000000 1.0   3.81
Fe     4  0.0276860000000 -0.2756500000000 -0.2648860000000 1.0   3.81
Fe     4 -0.3033360000000 -0.0276860000000 -0.2648860000000 1.0   3.81
Fe     4 -0.0000000000000  0.0000000000000  0.5329320000000 1.0   3.23
END
