TITL LFSO-LiFe3S4O-201028-162113-0df630 0.1946 535.748548 -8.87543003E+003 -23.9999 24.3955 18 (P3) n - 1
REM
REM Run started: Thu, 29 Oct 2020 14:51:08 +0000 in /lustre/scratch/uccabz1/launch_tmp/launcher_2020-10-28-16-21-12-009542
REM CASTEP 20.1 from code version af48c487+ pr-geom-scf-spinfix Tue Jun 2 15:39:59 2020 +0100
REM Functional Perdew Burke Ernzerhof Relativity Koelling-Harmon Dispersion off
REM Cut-off 340.0000 eV Grid scale 1.7500 Gmax 16.5316 1/A FBSC none
REM MP grid 3 3 2 Offset 0.000 0.000 0.000 No. kpts 5 Spacing 0.07
REM Total runtime: 68694.2 s
REM Overall efficiency: 72.1538 %
REM
REM
REM
REM compiler GCC version 4.9.2
REM options -cpp -iprefix /lustre/shared/ucl/apps/gcc/4.9.2/bin/../lib/gcc/x86_64-unknown-linux-gnu/4.9.2/ -mtune=corei7 -march=x86-64 -g -Og
REM COMMAND_LINE
REM seed 1441608287 113996132 -1276148583 1572114513 276703676 -2088350584 592313000 876625653 -1301516559 736834188 309798402 1199533890
REM
REM S 3|1.8|5|6|7|30:31:32(qc=5)
REM O 2|1.5|12|13|15|20:21(qc=5)
REM Li 1|1.3|8|9|10|10U:20(qc=5)
REM Fe 3|2.2|2.0|1.0|8|9|10|40:41:32(qc=5)
REM Fe d:4.0 
REM
CELL 1.54180    6.89099    6.89099   13.02769   90.00000   90.00000  120.00000
LATT -1
SFAC Li O  S  Fe 
Li     1  0.3333330000000 -0.3333330000000 -0.2070300000000 1.0   0.07
Li     1 -0.0000000000000  0.0000000000000 -0.2691160000000 1.0   0.05
O      2 -0.0000000000000  0.0000000000000 -0.0646050000000 1.0  -0.21
O      2  0.3333330000000 -0.3333330000000  0.5469550000000 1.0  -0.22
S      3  0.0076080000000  0.3390380000000 -0.2522380000000 1.0  -0.18
S      3  0.3314300000000 -0.0076080000000 -0.2522380000000 1.0  -0.18
S      3 -0.3390380000000 -0.3314300000000 -0.2522380000000 1.0  -0.18
S      3 -0.4664200000000 -0.2076290000000  0.1107920000000 1.0  -0.01
S      3  0.2587910000000  0.4664200000000  0.1107920000000 1.0  -0.01
S      3  0.2076290000000 -0.2587910000000  0.1107920000000 1.0  -0.01
S      3 -0.3333330000000  0.3333330000000  0.4930640000000 1.0  -0.08
S      3 -0.3333330000000  0.3333330000000  0.0035260000000 1.0  -0.06
Fe     4  0.5158220000000  0.5287770000000 -0.4150220000000 1.0  -3.83
Fe     4  0.0129550000000 -0.5158220000000 -0.4150220000000 1.0  -3.83
Fe     4 -0.5287770000000 -0.0129550000000 -0.4150220000000 1.0  -3.83
Fe     4 -0.1954890000000 -0.3262290000000 -0.0885860000000 1.0  -3.83
Fe     4 -0.1307400000000  0.1954890000000 -0.0885860000000 1.0  -3.83
Fe     4  0.3262290000000  0.1307400000000 -0.0885860000000 1.0  -3.83
END
