TITL LFSO-Li2FeSO-201024-211503-fe06ff 0.0439 138.062113 -4.00653229E+003 8.00000 8.03904 10 (I41) n - 1
REM
REM Run started: Sat, 24 Oct 2020 21:35:42 +0100 in /scratch/scratch/uccabz1/launch_tmp/launcher_2020-10-24-20-15-01-750433
REM CASTEP 19.11| from code version Version unavailable
REM Functional Perdew Burke Ernzerhof Relativity Koelling-Harmon Dispersion off
REM Cut-off 340.0000 eV Grid scale 1.7500 Gmax 16.5316 1/A FBSC none
REM MP grid 4 4 4 Offset 0.000 0.000 0.000 No. kpts 12 Spacing 0.07
REM Total runtime: 1405.21 s
REM Overall efficiency: 78 %
REM
REM
REM
REM compiler GCC version 4.9.2
REM options -cpp -iprefix /scratch/UCL/applications/gcc/4.9.2/bin/../lib/gcc/x86_64-unknown-linux-gnu/4.9.2/ -mtune=corei7 -march=x86-64 -g -O2
REM COMMAND_LINE
REM seed 16084733 1764783264 585898609 1616614500 -53750406 -1312187079 -1840655368 91043901 253167761 1689395754 333978135 -536223297
REM
REM S 3|1.8|5|6|7|30:31:32(qc=5)
REM O 2|1.5|12|13|15|20:21(qc=5)
REM Li 1|1.3|8|9|10|10U:20(qc=5)
REM Fe 3|2.2|2.0|1.0|8|9|10|40:41:32(qc=5)
REM Fe d:4.0 
REM
CELL 1.54180    6.29702    6.29702    6.29702   71.38660  131.26865  131.26865
LATT -1
SFAC Li O  S  Fe 
Li     1  0.1960590000000 -0.3511420000000  0.3218980000000 1.0  -0.04
Li     1 -0.1960590000000  0.1258390000000 -0.5472010000000 1.0  -0.04
Li     1  0.1730400000000  0.5718980000000 -0.1241610000000 1.0  -0.04
Li     1 -0.1730400000000 -0.2972010000000  0.3988580000000 1.0  -0.04
O      2 -0.0000000000000  0.2776960000000  0.2776960000000 1.0   0.13
O      2 -0.5000000000000 -0.4723040000000  0.0276960000000 1.0   0.13
S      3 -0.0000000000000 -0.1657100000000 -0.1657100000000 1.0   0.05
S      3 -0.5000000000000  0.0842900000000 -0.4157100000000 1.0   0.05
Fe     4 -0.0000000000000  0.0855380000000  0.0855380000000 1.0   3.89
Fe     4 -0.5000000000000  0.3355380000000 -0.1644620000000 1.0   3.89
END
