TITL LFSO-Li4Fe3S4O-201029-205702-7362b7 -0.0390 210.946652 -5.03734711E+003 10.0001 10.2566 12 (C2) n - 1
REM
REM Run started: Fri, 30 Oct 2020 05:56:17 +0000 in /lustre/scratch/uccabz1/launch_tmp/launcher_2020-10-29-20-57-00-998941
REM CASTEP 20.1 from code version af48c487+ pr-geom-scf-spinfix Tue Jun 2 15:39:59 2020 +0100
REM Functional Perdew Burke Ernzerhof Relativity Koelling-Harmon Dispersion off
REM Cut-off 340.0000 eV Grid scale 1.7500 Gmax 16.5316 1/A FBSC none
REM MP grid 5 5 2 Offset 0.000 0.000 0.000 No. kpts 15 Spacing 0.07
REM Total runtime: 34347.8 s
REM Overall efficiency: 85.2308 %
REM
REM
REM
REM compiler GCC version 4.9.2
REM options -cpp -iprefix /lustre/shared/ucl/apps/gcc/4.9.2/bin/../lib/gcc/x86_64-unknown-linux-gnu/4.9.2/ -mtune=corei7 -march=x86-64 -g -Og
REM COMMAND_LINE
REM seed -1033315004 -1564857219 1049697781 -1761131407 1967121281 -1319117310 -742761499 1440613137 3720818 -29877832 1362826312 -1842096186
REM
REM S 3|1.8|5|6|7|30:31:32(qc=5)
REM O 2|1.5|12|13|15|20:21(qc=5)
REM Li 1|1.3|8|9|10|10U:20(qc=5)
REM Fe 3|2.2|2.0|1.0|8|9|10|40:41:32(qc=5)
REM Fe d:4.0 
REM
CELL 1.54180    4.53697    3.99894   14.99491   78.98206   70.31164   55.43975
LATT -1
SFAC Li O  S  Fe 
Li     1 -0.2484110000000 -0.0438010000000  0.2428710000000 1.0  -0.05
Li     1  0.2922120000000 -0.0438010000000 -0.2428710000000 1.0  -0.05
Li     1 -0.3304890000000  0.0369280000000 -0.1033160000000 1.0   0.00
Li     1  0.2935610000000  0.0369280000000  0.1033160000000 1.0   0.00
O      2  0.3203920000000  0.3592160000000 -0.5000000000000 1.0   0.11
S      3 -0.3145400000000  0.3078140000000  0.0717710000000 1.0   0.01
S      3  0.0067260000000  0.3078140000000 -0.0717710000000 1.0   0.01
S      3  0.0676610000000  0.2283980000000  0.2871340000000 1.0   0.04
S      3 -0.2960590000000  0.2283980000000 -0.2871340000000 1.0   0.04
Fe     4  0.2707660000000 -0.3096820000000  0.3899800000000 1.0   3.40
Fe     4  0.0389160000000 -0.3096820000000 -0.3899800000000 1.0   3.40
Fe     4 -0.2078440000000 -0.5843120000000  0.5000000000000 1.0   3.09
END
