TITL LFSO-Li2Fe4S4O-201025-000306-8bb91d 0.1025 357.263174 -5.50045315E+003 16.0000 16.3478 11 (Cm) n - 1
REM
REM Run started: Sun, 25 Oct 2020 09:58:04 +0000 in /lustre/scratch/uccabz1/launch_tmp/launcher_2020-10-24-23-03-04-862638
REM CASTEP 20.1 from code version af48c487+ pr-geom-scf-spinfix Tue Jun 2 15:39:59 2020 +0100
REM Functional Perdew Burke Ernzerhof Relativity Koelling-Harmon Dispersion off
REM Cut-off 340.0000 eV Grid scale 1.7500 Gmax 16.5316 1/A FBSC none
REM MP grid 4 2 2 Offset 0.000 0.000 0.000 No. kpts 8 Spacing 0.07
REM Total runtime: 45173.2 s
REM Overall efficiency: 92.6923 %
REM
REM
REM
REM compiler GCC version 4.9.2
REM options -cpp -iprefix /lustre/shared/ucl/apps/gcc/4.9.2/bin/../lib/gcc/x86_64-unknown-linux-gnu/4.9.2/ -mtune=corei7 -march=x86-64 -g -Og
REM COMMAND_LINE
REM seed 656693721 1911891805 566394958 1624016595 1327178574 808537290 573231024 -733786069 -1690761275 2103781783 133790594 1055515331
REM
REM S 3|1.8|5|6|7|30:31:32(qc=5)
REM O 2|1.5|12|13|15|20:21(qc=5)
REM Li 1|1.3|8|9|10|10U:20(qc=5)
REM Fe 3|2.2|2.0|1.0|8|9|10|40:41:32(qc=5)
REM Fe d:4.0 
REM
CELL 1.54180    3.72922   11.69270   10.31303  124.53362   77.41489   90.00000
LATT -1
SFAC Li O  S  Fe 
Li     1  0.5006040000000 -0.0596540000000  0.1437870000000 1.0  -0.03
Li     1  0.5006040000000  0.2034410000000  0.1437870000000 1.0  -0.03
O      2 -0.4307430000000 -0.0138460000000 -0.0276910000000 1.0   0.23
S      3  0.1618830000000 -0.3589730000000 -0.2535060000000 1.0   0.14
S      3  0.1618830000000  0.1054670000000 -0.2535060000000 1.0   0.14
S      3 -0.0834990000000  0.3653190000000  0.2941270000000 1.0   0.14
S      3 -0.0834990000000 -0.0711930000000  0.2941270000000 1.0   0.14
Fe     4  0.3160230000000 -0.0164590000000  0.4609660000000 1.0   3.85
Fe     4  0.3160230000000 -0.5225750000000  0.4609660000000 1.0   3.85
Fe     4  0.6203820000000 -0.2161400000000 -0.1823660000000 1.0   3.79
Fe     4  0.6203820000000  0.0337750000000 -0.1823660000000 1.0   3.79
END
