TITL LFSO-Li6FeSO3-201028-081826-0ef892 -0.0130 434.220340 -7.35703965E+003 8.00000 8.21788 22 (Pnc2) n - 1
REM
REM Run started: Wed, 28 Oct 2020 09:28:34 +0000 in /scratch/scratch/uccabz1/launch_tmp/launcher_2020-10-28-08-18-25-220877
REM CASTEP 19.11| from code version Version unavailable
REM Functional Perdew Burke Ernzerhof Relativity Koelling-Harmon Dispersion off
REM Cut-off 340.0000 eV Grid scale 1.7500 Gmax 16.5316 1/A FBSC none
REM MP grid 3 3 2 Offset 0.000 0.000 0.000 No. kpts 4 Spacing 0.07
REM Total runtime: 4458.75 s
REM Overall efficiency: 74.4167 %
REM
REM
REM
REM compiler GCC version 4.9.2
REM options -cpp -iprefix /scratch/UCL/applications/gcc/4.9.2/bin/../lib/gcc/x86_64-unknown-linux-gnu/4.9.2/ -mtune=corei7 -march=x86-64 -g -O2
REM COMMAND_LINE
REM seed 119723348 -582494011 -977597828 -420935489 -37045158 -142700104 684553819 2090546060 1149385738 -262711898 -1840837310 719440251
REM
REM S 3|1.8|5|6|7|30:31:32(qc=5)
REM O 2|1.5|12|13|15|20:21(qc=5)
REM Li 1|1.3|8|9|10|10U:20(qc=5)
REM Fe 3|2.2|2.0|1.0|8|9|10|40:41:32(qc=5)
REM Fe d:4.0 
REM
CELL 1.54180    7.48201    6.01486    9.64865   90.00000   90.00000   90.00000
LATT -1
SFAC Li O  S  Fe 
Li     1 -0.3109090000000  0.0528500000000  0.4445730000000 1.0  -0.02
Li     1  0.3109090000000  0.0528500000000 -0.4445730000000 1.0  -0.02
Li     1 -0.3109090000000 -0.4471500000000  0.0554270000000 1.0  -0.02
Li     1  0.3109090000000 -0.4471500000000 -0.0554270000000 1.0  -0.02
Li     1  0.0993500000000 -0.1688970000000  0.2983690000000 1.0  -0.01
Li     1 -0.0993500000000 -0.1688970000000 -0.2983690000000 1.0  -0.01
Li     1  0.0993500000000  0.3311030000000  0.2016310000000 1.0  -0.01
Li     1 -0.0993500000000  0.3311030000000 -0.2016310000000 1.0  -0.01
Li     1  0.3409340000000  0.3631260000000  0.3988110000000 1.0  -0.01
Li     1 -0.3409340000000  0.3631260000000 -0.3988110000000 1.0  -0.01
Li     1  0.3409340000000 -0.1368740000000  0.1011890000000 1.0  -0.01
Li     1 -0.3409340000000 -0.1368740000000 -0.1011890000000 1.0  -0.01
O      2 -0.1528710000000  0.0364210000000 -0.1497370000000 1.0   0.10
O      2  0.1528710000000  0.0364210000000  0.1497370000000 1.0   0.10
O      2 -0.1528710000000 -0.4635790000000 -0.3502630000000 1.0   0.10
O      2  0.1528710000000 -0.4635790000000  0.3502630000000 1.0   0.10
O      2 -0.5000000000000  0.7024940000000 -0.0000000000000 1.0   0.01
O      2 -0.5000000000000  0.2024940000000  0.5000000000000 1.0   0.01
S      3  0.0000000000000  0.5548460000000 -0.0000000000000 1.0   0.10
S      3  0.0000000000000  0.0548460000000  0.5000000000000 1.0   0.10
Fe     4  0.0000000000000 -0.0419050000000 -0.0000000000000 1.0   3.77
Fe     4  0.0000000000000  0.4580950000000  0.5000000000000 1.0   3.77
END
