TITL LFSO-Li4Fe2S3O-201026-234655-8b528d -0.0300 391.237440 -7.73878257E+003 12.4423 13.8987 20 (Aem2) n - 1
REM
REM Run started: Wed, 28 Oct 2020 03:08:55 +0000 in /scratch/scratch/uccabz1/launch_tmp/launcher_2020-10-28-00-01-43-308973
REM CASTEP 19.11| from code version Version unavailable
REM Functional Perdew Burke Ernzerhof Relativity Koelling-Harmon Dispersion off
REM Cut-off 340.0000 eV Grid scale 1.7500 Gmax 16.5316 1/A FBSC none
REM MP grid 5 2 2 Offset 0.000 0.000 0.000 No. kpts 6 Spacing 0.07
REM Total runtime: 11929.3 s
REM Overall efficiency: 97.5 %
REM
REM
REM
REM compiler GCC version 4.9.2
REM options -cpp -iprefix /lustre/shared/ucl/apps/gcc/4.9.2/bin/../lib/gcc/x86_64-unknown-linux-gnu/4.9.2/ -mtune=corei7 -march=x86-64 -g -Og
REM COMMAND_LINE
REM seed -152266681 1247155564 -225071598 1678052554 1103672693 1820340497 837582849 -557957950 1658462463 -1410584749 1635139730 136334256
REM
REM S 3|1.8|5|6|7|30:31:32(qc=5)
REM O 2|1.5|12|13|15|20:21(qc=5)
REM Li 1|1.3|8|9|10|10U:20(qc=5)
REM Fe 3|2.2|2.0|1.0|8|9|10|40:41:32(qc=5)
REM Fe d:4.0 
REM
CELL 1.54180    3.28628   11.83045   11.83045  121.72137   90.00000   90.00000
LATT -1
SFAC Li O  S  Fe 
Li     1 -0.4694830000000  0.3801450000000 -0.1918410000000 1.0  -0.01
Li     1  0.4694830000000  0.1918410000000 -0.3801450000000 1.0  -0.01
Li     1 -0.4694830000000 -0.3081590000000  0.1198550000000 1.0  -0.01
Li     1  0.4694830000000 -0.1198550000000  0.3081590000000 1.0  -0.01
Li     1 -0.0814670000000 -0.2211080000000  0.4218480000000 1.0  -0.11
Li     1  0.0814670000000 -0.4218480000000  0.2211080000000 1.0  -0.11
Li     1 -0.0814670000000  0.0781520000000 -0.2788920000000 1.0  -0.11
Li     1  0.0814670000000  0.2788920000000 -0.0781520000000 1.0  -0.11
O      2  0.0000000000000 -0.2516510000000  0.2516510000000 1.0  -0.01
O      2  0.0000000000000  0.2483490000000 -0.2483490000000 1.0  -0.01
S      3 -0.3626180000000  0.0574490000000  0.2625370000000 1.0   0.02
S      3  0.3626180000000 -0.2625370000000 -0.0574490000000 1.0   0.02
S      3 -0.3626180000000  0.2374630000000  0.4425510000000 1.0   0.02
S      3  0.3626180000000 -0.4425510000000 -0.2374630000000 1.0   0.02
S      3  0.0000000000000  0.0753460000000 -0.0753460000000 1.0  -0.06
S      3  0.0000000000000 -0.4246540000000  0.4246540000000 1.0  -0.06
Fe     4  0.4178440000000 -0.3717560000000 -0.3881960000000 1.0   3.24
Fe     4 -0.4178440000000  0.3881960000000  0.3717560000000 1.0   3.24
Fe     4  0.4178440000000 -0.1118040000000 -0.1282440000000 1.0   3.24
Fe     4 -0.4178440000000  0.1282440000000  0.1118040000000 1.0   3.24
END
