TITL LFSO-Li2Fe2S2O-201022-033240-7e42bf 0.0229 235.478072 -6.33865899E+003 16.0000 16.1142 14 (P3) n - 1
REM
REM Run started: Thu, 22 Oct 2020 07:39:46 +0100 in /lustre/scratch/uccabz1/launch_tmp/launcher_2020-10-22-02-32-38-402940
REM CASTEP 20.1 from code version af48c487+ pr-geom-scf-spinfix Tue Jun 2 15:39:59 2020 +0100
REM Functional Perdew Burke Ernzerhof Relativity Koelling-Harmon Dispersion off
REM Cut-off 340.0000 eV Grid scale 1.7500 Gmax 16.5316 1/A FBSC none
REM MP grid 3 3 3 Offset 0.000 0.000 0.000 No. kpts 8 Spacing 0.07
REM Total runtime: 15104.7 s
REM Overall efficiency: 89.75 %
REM
REM
REM
REM compiler GCC version 4.9.2
REM options -cpp -iprefix /lustre/shared/ucl/apps/gcc/4.9.2/bin/../lib/gcc/x86_64-unknown-linux-gnu/4.9.2/ -mtune=corei7 -march=x86-64 -g -Og
REM COMMAND_LINE
REM seed -105366332 1627984582 597102413 1778831701 1342791753 -1634191030 -1270837516 1976240529 609715495 162635597 1357719019 1735649020
REM
REM S 3|1.8|5|6|7|30:31:32(qc=5)
REM O 2|1.5|12|13|15|20:21(qc=5)
REM Li 1|1.3|8|9|10|10U:20(qc=5)
REM Fe 3|2.2|2.0|1.0|8|9|10|40:41:32(qc=5)
REM Fe d:4.0 
REM
CELL 1.54180    6.30003    6.56960    6.56960  120.00000   90.00000   90.00000
LATT -1
SFAC Li O  S  Fe 
Li     1  0.0668070000000  0.1095770000000  0.3878530000000 1.0  -0.02
Li     1  0.0668070000000 -0.3878530000000 -0.2782760000000 1.0  -0.02
Li     1  0.0668070000000  0.2782760000000 -0.1095770000000 1.0  -0.02
Li     1  0.3164100000000 -0.3333330000000  0.3333330000000 1.0   0.03
O      2 -0.1483620000000  0.0000000000000 -0.0000000000000 1.0   0.21
O      2 -0.0620490000000  0.3333330000000 -0.3333330000000 1.0   0.14
S      3 -0.5591280000000  0.3281610000000 -0.0185260000000 1.0   0.18
S      3 -0.5591280000000  0.0185260000000  0.3466870000000 1.0   0.18
S      3 -0.5591280000000 -0.3466870000000 -0.3281610000000 1.0   0.18
S      3 -0.0831460000000 -0.3333330000000  0.3333330000000 1.0   0.07
Fe     4 -0.3005980000000 -0.0737990000000 -0.3068370000000 1.0   3.82
Fe     4 -0.3005980000000  0.3068370000000  0.2330380000000 1.0   3.82
Fe     4 -0.3005980000000 -0.2330380000000  0.0737990000000 1.0   3.82
Fe     4 -0.3789080000000  0.3333330000000 -0.3333330000000 1.0   3.60
END
