TITL LFSO-Li5FeSO3-201026-202746-3143f6 -0.0091 206.950128 -3.47878265E+003 3.00375 3.51433 10 (Cm) n - 1
REM
REM Run started: Mon, 26 Oct 2020 21:13:24 +0000 in /scratch/scratch/uccabz1/launch_tmp/launcher_2020-10-26-20-27-44-687040
REM CASTEP 19.11| from code version Version unavailable
REM Functional Perdew Burke Ernzerhof Relativity Koelling-Harmon Dispersion off
REM Cut-off 340.0000 eV Grid scale 1.7500 Gmax 16.5316 1/A FBSC none
REM MP grid 5 2 2 Offset 0.000 0.000 0.000 No. kpts 10 Spacing 0.07
REM Total runtime: 2951.98 s
REM Overall efficiency: 79.125 %
REM
REM
REM
REM compiler GCC version 4.9.2
REM options -cpp -iprefix /scratch/UCL/applications/gcc/4.9.2/bin/../lib/gcc/x86_64-unknown-linux-gnu/4.9.2/ -mtune=corei7 -march=x86-64 -g -O2
REM COMMAND_LINE
REM seed -390795273 -1064773168 -2015448849 571276377 -532332940 -1040882698 -1918863895 -1845312745 1299393606 -887319363 -2057684748 641282881
REM
REM S 3|1.8|5|6|7|30:31:32(qc=5)
REM O 2|1.5|12|13|15|20:21(qc=5)
REM Li 1|1.3|8|9|10|10U:20(qc=5)
REM Fe 3|2.2|2.0|1.0|8|9|10|40:41:32(qc=5)
REM Fe d:4.0 
REM
CELL 1.54180    3.03320    8.54766    9.06723  118.12189   86.93608   90.00000
LATT -1
SFAC Li O  S  Fe 
Li     1  0.1514540000000 -0.1540820000000  0.3165350000000 1.0   0.00
Li     1  0.1514540000000  0.4706170000000  0.3165350000000 1.0   0.00
Li     1  0.0932970000000  0.4731420000000  0.5651140000000 1.0  -0.01
Li     1  0.0932970000000  0.0919710000000  0.5651140000000 1.0  -0.01
Li     1 -0.3632720000000 -0.2456840000000  0.5086310000000 1.0   0.00
O      2  0.6170370000000 -0.0645190000000 -0.5430350000000 1.0  -0.01
O      2  0.6170370000000 -0.4785160000000 -0.5430350000000 1.0  -0.01
O      2  0.0577010000000  0.3555660000000 -0.2888690000000 1.0   0.04
S      3  0.0030700000000 -0.4638970000000  0.0722060000000 1.0  -0.18
Fe     4 -0.4685180000000  0.4306370000000 -0.1387260000000 1.0   3.18
END
