TITL LFSO-Li2Fe3S3O-201025-162424-bcfe4b 0.0530 188.026394 -4.33515037E+003 12.0000 12.2122 9 (R3) n - 1
REM
REM Run started: Sun, 25 Oct 2020 18:35:31 +0000 in /scratch/scratch/uccabz1/launch_tmp/launcher_2020-10-25-16-24-22-548933
REM CASTEP 19.11| from code version Version unavailable
REM Functional Perdew Burke Ernzerhof Relativity Koelling-Harmon Dispersion off
REM Cut-off 340.0000 eV Grid scale 1.7500 Gmax 16.5316 1/A FBSC none
REM MP grid 3 3 4 Offset 0.000 0.000 0.000 No. kpts 14 Spacing 0.07
REM Total runtime: 8279.21 s
REM Overall efficiency: 96.8571 %
REM
REM
REM
REM compiler GCC version 4.9.2
REM options -cpp -iprefix /scratch/UCL/applications/gcc/4.9.2/bin/../lib/gcc/x86_64-unknown-linux-gnu/4.9.2/ -mtune=corei7 -march=x86-64 -g -O2
REM COMMAND_LINE
REM seed 1231206412 -854402560 -1844736332 1440532923 -581790744 1920087797 -1420464120 833300943 -785459133 -114779922 137325565 455554446
REM
REM S 3|1.8|5|6|7|30:31:32(qc=5)
REM O 2|1.5|12|13|15|20:21(qc=5)
REM Li 1|1.3|8|9|10|10U:20(qc=5)
REM Fe 3|2.2|2.0|1.0|8|9|10|40:41:32(qc=5)
REM Fe d:4.0 
REM
CELL 1.54180    7.07334    7.07334    5.95891   53.59355   53.59355   60.00000
LATT -1
SFAC Li O  S  Fe 
Li     1  0.0791390000000  0.0791390000000 -0.2374180000000 1.0  -0.10
Li     1 -0.1523330000000 -0.1523330000000  0.4569980000000 1.0  -0.07
O      2 -0.2955550000000 -0.2955550000000 -0.1133360000000 1.0   0.21
S      3  0.2103710000000 -0.3617080000000  0.1313850000000 1.0   0.16
S      3 -0.3617080000000  0.0199520000000  0.1313850000000 1.0   0.16
S      3  0.0199520000000  0.2103710000000  0.1313850000000 1.0   0.16
Fe     4  0.4010340000000 -0.0712280000000  0.0440960000000 1.0   3.83
Fe     4 -0.0712280000000  0.6260980000000  0.0440960000000 1.0   3.83
Fe     4  0.6260980000000  0.4010340000000  0.0440960000000 1.0   3.83
END
