TITL LFSO-Li6FeSO3-201028-060804-6d3360 0.0110 322.886327 -7.35764256E+003 8.00000 8.32776 22 (Iba2) n - 1
REM
REM Run started: Wed, 28 Oct 2020 07:38:13 +0000 in /scratch/scratch/uccabz1/launch_tmp/launcher_2020-10-28-06-08-02-442719
REM CASTEP 19.11| from code version Version unavailable
REM Functional Perdew Burke Ernzerhof Relativity Koelling-Harmon Dispersion off
REM Cut-off 340.0000 eV Grid scale 1.7500 Gmax 16.5316 1/A FBSC none
REM MP grid 3 3 3 Offset 0.000 0.000 0.000 No. kpts 8 Spacing 0.07
REM Total runtime: 6109.08 s
REM Overall efficiency: 77.1429 %
REM
REM
REM
REM compiler GCC version 4.9.2
REM options -cpp -iprefix /scratch/UCL/applications/gcc/4.9.2/bin/../lib/gcc/x86_64-unknown-linux-gnu/4.9.2/ -mtune=corei7 -march=x86-64 -g -O2
REM COMMAND_LINE
REM seed -498346317 -888106077 -841430916 2068545695 -1728678104 690063745 721021508 833632763 1294162571 2035738018 -171242923 -1062884603
REM
REM S 3|1.8|5|6|7|30:31:32(qc=5)
REM O 2|1.5|12|13|15|20:21(qc=5)
REM Li 1|1.3|8|9|10|10U:20(qc=5)
REM Fe 3|2.2|2.0|1.0|8|9|10|40:41:32(qc=5)
REM Fe d:4.0 
REM
CELL 1.54180    6.17276    8.65072    8.65072   49.47118   69.09759   69.09759
LATT -1
SFAC Li O  S  Fe 
Li     1 -0.4161380000000 -0.1420270000000  0.1885170000000 1.0  -0.02
Li     1  0.3696470000000  0.1885170000000 -0.1420270000000 1.0  -0.02
Li     1  0.0838620000000 -0.3114830000000  0.3579730000000 1.0  -0.02
Li     1 -0.1303530000000  0.3579730000000 -0.3114830000000 1.0  -0.02
Li     1 -0.2813970000000 -0.3469450000000 -0.0045480000000 1.0  -0.02
Li     1 -0.3671090000000 -0.0045480000000 -0.3469450000000 1.0  -0.02
Li     1  0.2186030000000 -0.5045480000000  0.1530550000000 1.0  -0.02
Li     1  0.1328910000000  0.1530550000000 -0.5045480000000 1.0  -0.02
Li     1 -0.1114510000000 -0.0746220000000 -0.1260090000000 1.0  -0.00
Li     1  0.3120820000000 -0.1260090000000 -0.0746220000000 1.0  -0.00
Li     1  0.3885490000000  0.3739910000000 -0.5746220000000 1.0  -0.00
Li     1 -0.1879180000000 -0.5746220000000  0.3739910000000 1.0  -0.00
O      2 -0.4664800000000  0.4548490000000  0.1562360000000 1.0   0.13
O      2 -0.1446050000000  0.1562360000000  0.4548490000000 1.0   0.13
O      2  0.0335200000000 -0.3437640000000 -0.0451510000000 1.0   0.13
O      2  0.3553950000000 -0.0451510000000 -0.3437640000000 1.0   0.13
O      2 -0.4347460000000 -0.0652540000000 -0.0652540000000 1.0   0.01
O      2  0.0652540000000  0.4347460000000  0.4347460000000 1.0   0.01
S      3 -0.0532980000000  0.0532980000000  0.0532980000000 1.0   0.02
S      3  0.4467020000000 -0.4467020000000 -0.4467020000000 1.0   0.02
Fe     4  0.2799910000000 -0.2799910000000 -0.2799910000000 1.0   3.80
Fe     4 -0.2200090000000  0.2200090000000  0.2200090000000 1.0   3.80
END
