TITL LFSO-Li4Fe3S4O-201029-063536-8b7444 -0.0052 637.080081 -1.00776063E+004 -22.6368 23.6010 24 (P21) n - 1
REM
REM Run started: Fri, 30 Oct 2020 18:11:11 +0000 in /scratch/scratch/uccabz1/launch_tmp/launcher_2020-10-30-01-02-14-224222
REM CASTEP 19.11| from code version Version unavailable
REM Functional Perdew Burke Ernzerhof Relativity Koelling-Harmon Dispersion off
REM Cut-off 340.0000 eV Grid scale 1.7500 Gmax 16.5316 1/A FBSC none
REM MP grid 3 3 2 Offset 0.000 0.000 0.000 No. kpts 6 Spacing 0.07
REM Total runtime: 138771 s
REM Overall efficiency: 85.3846 %
REM
REM
REM
REM compiler GCC version 4.9.2
REM options -cpp -iprefix /scratch/UCL/applications/gcc/4.9.2/bin/../lib/gcc/x86_64-unknown-linux-gnu/4.9.2/ -mtune=corei7 -march=x86-64 -g -O2
REM COMMAND_LINE
REM seed -1478398998 -875536381 1096412868 -2028596257 -1150215720 1590119522 -1290936104 -1249194550 -1234955940 884775567 -1736854569 -1442171486
REM
REM S 3|1.8|5|6|7|30:31:32(qc=5)
REM O 2|1.5|12|13|15|20:21(qc=5)
REM Li 1|1.3|8|9|10|10U:20(qc=5)
REM Fe 3|2.2|2.0|1.0|8|9|10|40:41:32(qc=5)
REM Fe d:4.0 
REM
CELL 1.54180   10.79827    6.61657   15.03973   90.00000  143.63831   90.00000
LATT -1
SFAC Li O  S  Fe 
Li     1  0.0346130000000 -0.3195620000000  0.3952060000000 1.0   0.00
Li     1 -0.0346130000000  0.1804380000000 -0.3952060000000 1.0   0.00
Li     1 -0.1311910000000  0.2562150000000 -0.1605970000000 1.0   0.02
Li     1  0.1311910000000 -0.2437850000000  0.1605970000000 1.0   0.02
Li     1  0.1344610000000  0.1964750000000  0.1645730000000 1.0   0.02
Li     1 -0.1344610000000  0.6964750000000 -0.1645730000000 1.0   0.02
Li     1 -0.0341850000000 -0.2444790000000  0.5915430000000 1.0   0.01
Li     1  0.0341850000000  0.2555210000000 -0.5915430000000 1.0   0.01
O      2 -0.3398620000000 -0.5292420000000 -0.2815190000000 1.0  -0.12
O      2  0.3398620000000 -0.0292420000000  0.2815190000000 1.0  -0.12
S      3 -0.2710840000000  0.2194800000000  0.3391850000000 1.0  -0.02
S      3  0.2710840000000 -0.2805200000000 -0.3391850000000 1.0  -0.02
S      3 -0.2744340000000 -0.2673260000000  0.3254850000000 1.0  -0.02
S      3  0.2744340000000  0.2326740000000 -0.3254850000000 1.0  -0.02
S      3 -0.8445940000000  0.4769620000000  0.0607060000000 1.0  -0.08
S      3  0.8445940000000 -0.0230380000000 -0.0607060000000 1.0  -0.08
S      3  0.0842870000000 -0.5405760000000  0.2953540000000 1.0  -0.02
S      3 -0.0842870000000 -0.0405760000000 -0.2953540000000 1.0  -0.02
Fe     4  0.5672850000000 -0.0509300000000  0.4937650000000 1.0  -3.61
Fe     4 -0.5672850000000  0.4490700000000 -0.4937650000000 1.0  -3.61
Fe     4 -0.5139590000000 -0.5250250000000  0.1976730000000 1.0  -3.73
Fe     4  0.5139590000000 -0.0250250000000 -0.1976730000000 1.0  -3.73
Fe     4 -0.4845810000000 -0.0322220000000  0.2760930000000 1.0  -3.76
Fe     4  0.4845810000000  0.4677780000000 -0.2760930000000 1.0  -3.76
END
