TITL LFSO-Li2Fe3S3O-201026-120935-88b74d 0.0748 369.799470 -8.66817879E+003 23.8550 24.1936 18 (P-4) n - 1
REM
REM Run started: Wed, 28 Oct 2020 04:33:59 +0000 in /scratch/scratch/uccabz1/launch_tmp/launcher_2020-10-28-00-05-06-473957
REM CASTEP 19.11| from code version Version unavailable
REM Functional Perdew Burke Ernzerhof Relativity Koelling-Harmon Dispersion off
REM Cut-off 340.0000 eV Grid scale 1.7500 Gmax 16.5316 1/A FBSC none
REM MP grid 2 2 3 Offset 0.000 0.000 0.000 No. kpts 2 Spacing 0.07
REM Total runtime: 16094 s
REM Overall efficiency: 81.8889 %
REM
REM
REM
REM compiler GCC version 4.9.2
REM options -cpp -iprefix /lustre/shared/ucl/apps/gcc/4.9.2/bin/../lib/gcc/x86_64-unknown-linux-gnu/4.9.2/ -mtune=corei7 -march=x86-64 -g -Og
REM COMMAND_LINE
REM seed -1702331686 1219612305 -51608092 862427366 -325493771 -854407146 -1179625260 -1568402925 453354980 404523716 1558070366 1201566119
REM
REM S 3|1.8|5|6|7|30:31:32(qc=5)
REM O 2|1.5|12|13|15|20:21(qc=5)
REM Li 1|1.3|8|9|10|10U:20(qc=5)
REM Fe 3|2.2|2.0|1.0|8|9|10|40:41:32(qc=5)
REM Fe d:4.0 
REM
CELL 1.54180    7.28354    7.28354    6.97077   90.00000   90.00000   90.00000
LATT -1
SFAC Li O  S  Fe 
Li     1 -0.1882870000000  0.3401410000000 -0.1136530000000 1.0  -0.07
Li     1  0.1882870000000 -0.3401410000000 -0.1136530000000 1.0  -0.07
Li     1 -0.3401410000000 -0.1882870000000  0.1136530000000 1.0  -0.07
Li     1  0.3401410000000  0.1882870000000  0.1136530000000 1.0  -0.07
O      2  0.5000000000000  0.0000000000000  0.2595430000000 1.0   0.22
O      2  0.0000000000000  0.5000000000000 -0.2595430000000 1.0   0.22
S      3 -0.4430050000000 -0.2913680000000 -0.2249580000000 1.0   0.10
S      3  0.4430050000000  0.2913680000000 -0.2249580000000 1.0   0.10
S      3  0.2913680000000 -0.4430050000000  0.2249580000000 1.0   0.10
S      3 -0.2913680000000  0.4430050000000  0.2249580000000 1.0   0.10
S      3  0.0000000000000  0.0000000000000 -0.2459820000000 1.0   0.26
S      3  0.0000000000000  0.0000000000000  0.2459820000000 1.0   0.26
Fe     4 -0.1368400000000 -0.2837070000000 -0.3367560000000 1.0   3.83
Fe     4  0.1368400000000  0.2837070000000 -0.3367560000000 1.0   3.83
Fe     4  0.2837070000000 -0.1368400000000  0.3367560000000 1.0   3.83
Fe     4 -0.2837070000000  0.1368400000000  0.3367560000000 1.0   3.83
Fe     4  0.0000000000000 -0.5000000000000  0.2895650000000 1.0   3.72
Fe     4  0.5000000000000  0.0000000000000 -0.2895650000000 1.0   3.72
END
