TITL LFSO-Li3FeS2O-201024-230052-60bf18 0.0136 409.411499 -7.51633519E+003 11.4984 12.0444 21 (P222) n - 1
REM
REM Run started: Sun, 25 Oct 2020 01:50:51 +0000 in /scratch/scratch/uccabz1/launch_tmp/launcher_2020-10-24-22-00-50-696387
REM CASTEP 19.11| from code version Version unavailable
REM Functional Perdew Burke Ernzerhof Relativity Koelling-Harmon Dispersion off
REM Cut-off 340.0000 eV Grid scale 1.7500 Gmax 16.5316 1/A FBSC none
REM MP grid 5 2 2 Offset 0.000 0.000 0.000 No. kpts 3 Spacing 0.07
REM Total runtime: 14529.1 s
REM Overall efficiency: 73.5455 %
REM
REM
REM
REM compiler GCC version 4.9.2
REM options -cpp -iprefix /scratch/UCL/applications/gcc/4.9.2/bin/../lib/gcc/x86_64-unknown-linux-gnu/4.9.2/ -mtune=corei7 -march=x86-64 -g -O2
REM COMMAND_LINE
REM seed 1425151099 1718729660 161010984 -1045133697 2102645833 -392095759 969672623 -683570982 -1026293429 609597331 -65816883 747113865
REM
REM S 3|1.8|5|6|7|30:31:32(qc=5)
REM O 2|1.5|12|13|15|20:21(qc=5)
REM Li 1|1.3|8|9|10|10U:20(qc=5)
REM Fe 3|2.2|2.0|1.0|8|9|10|40:41:32(qc=5)
REM Fe d:4.0 
REM
CELL 1.54180    3.16711   11.98397   10.78689   90.00000   90.00000   90.00000
LATT -1
SFAC Li O  S  Fe 
Li     1 -0.4759110000000 -0.1883480000000  0.1002990000000 1.0   0.01
Li     1  0.4759110000000 -0.1883480000000 -0.1002990000000 1.0   0.01
Li     1  0.4759110000000  0.1883480000000  0.1002990000000 1.0   0.01
Li     1 -0.4759110000000  0.1883480000000 -0.1002990000000 1.0   0.01
Li     1  0.4210130000000 -0.4014090000000  0.3590740000000 1.0  -0.06
Li     1 -0.4210130000000 -0.4014090000000 -0.3590740000000 1.0  -0.06
Li     1 -0.4210130000000  0.4014090000000  0.3590740000000 1.0  -0.06
Li     1  0.4210130000000  0.4014090000000 -0.3590740000000 1.0  -0.06
Li     1  0.0000000000000  0.0000000000000  0.0000000000000 1.0  -0.01
O      2  0.0000000000000  0.1539670000000  0.0000000000000 1.0   0.00
O      2  0.0000000000000 -0.1539670000000  0.0000000000000 1.0   0.00
O      2  0.5000000000000 -0.5000000000000  0.5000000000000 1.0   0.64
S      3  0.5016940000000 -0.1847190000000 -0.3501150000000 1.0   0.02
S      3 -0.5016940000000 -0.1847190000000  0.3501150000000 1.0   0.02
S      3 -0.5016940000000  0.1847190000000 -0.3501150000000 1.0   0.02
S      3  0.5016940000000  0.1847190000000  0.3501150000000 1.0   0.02
S      3  0.0000000000000 -0.5000000000000 -0.2173840000000 1.0   0.52
S      3  0.0000000000000 -0.5000000000000  0.2173840000000 1.0   0.52
Fe     4  0.0000000000000 -0.2184640000000 -0.5000000000000 1.0   3.34
Fe     4  0.0000000000000  0.2184640000000  0.5000000000000 1.0   3.34
Fe     4  0.0000000000000  0.0000000000000 -0.5000000000000 1.0   3.24
END
