TITL LFSO-Li4Fe3S4O-201030-060755-b30e70 -0.0486 548.913053 -1.00767241E+004 -23.9997 24.2404 24 (Pmc21) n - 1
REM
REM Run started: Fri, 30 Oct 2020 16:49:47 +0000 in /lustre/scratch/uccabz1/launch_tmp/launcher_2020-10-30-06-07-53-379303
REM CASTEP 20.1 from code version af48c487+ pr-geom-scf-spinfix Tue Jun 2 15:39:59 2020 +0100
REM Functional Perdew Burke Ernzerhof Relativity Koelling-Harmon Dispersion off
REM Cut-off 340.0000 eV Grid scale 1.7500 Gmax 16.5316 1/A FBSC none
REM MP grid 2 3 2 Offset 0.000 0.000 0.000 No. kpts 2 Spacing 0.07
REM Total runtime: 40714.9 s
REM Overall efficiency: 81.0833 %
REM
REM
REM
REM compiler GCC version 4.9.2
REM options -cpp -iprefix /lustre/shared/ucl/apps/gcc/4.9.2/bin/../lib/gcc/x86_64-unknown-linux-gnu/4.9.2/ -mtune=corei7 -march=x86-64 -g -Og
REM COMMAND_LINE
REM seed 606478119 1728645245 -90205433 -697293093 1045540014 -1540882130 -506559815 -363549401 -690468782 -1442085206 939919114 -1424883439
REM
REM S 3|1.8|5|6|7|30:31:32(qc=5)
REM O 2|1.5|12|13|15|20:21(qc=5)
REM Li 1|1.3|8|9|10|10U:20(qc=5)
REM Fe 3|2.2|2.0|1.0|8|9|10|40:41:32(qc=5)
REM Fe d:4.0 
REM
CELL 1.54180    7.38424    6.04036   12.30651   90.00000   90.00000   90.00000
LATT -1
SFAC Li O  S  Fe 
Li     1  0.0015620000000 -0.6726700000000 -0.3889220000000 1.0   0.04
Li     1 -0.4984380000000  0.6726700000000  0.3889220000000 1.0   0.04
Li     1 -0.4984380000000  0.6726700000000 -0.3889220000000 1.0   0.04
Li     1  0.0015620000000 -0.6726700000000  0.3889220000000 1.0   0.04
Li     1  0.2450160000000 -0.2354330000000  0.2077490000000 1.0   0.04
Li     1 -0.2549840000000  0.2354330000000 -0.2077490000000 1.0   0.04
Li     1 -0.2549840000000  0.2354330000000  0.2077490000000 1.0   0.04
Li     1  0.2450160000000 -0.2354330000000 -0.2077490000000 1.0   0.04
O      2  0.5007950000000  0.4831150000000 -0.5000000000000 1.0  -0.20
O      2  0.0007950000000 -0.4831150000000  0.5000000000000 1.0  -0.20
S      3  0.0241390000000  0.4585320000000  0.1782820000000 1.0  -0.13
S      3 -0.4758610000000 -0.4585320000000 -0.1782820000000 1.0  -0.13
S      3 -0.4758610000000 -0.4585320000000  0.1782820000000 1.0  -0.13
S      3  0.0241390000000  0.4585320000000 -0.1782820000000 1.0  -0.13
S      3  0.2567730000000  0.0149020000000 -0.3567790000000 1.0  -0.09
S      3 -0.2432270000000 -0.0149020000000  0.3567790000000 1.0  -0.09
S      3 -0.2432270000000 -0.0149020000000 -0.3567790000000 1.0  -0.09
S      3  0.2567730000000  0.0149020000000  0.3567790000000 1.0  -0.09
Fe     4 -0.1982440000000 -0.2976360000000 -0.2366520000000 1.0  -3.84
Fe     4  0.3017560000000  0.2976360000000  0.2366520000000 1.0  -3.84
Fe     4  0.3017560000000  0.2976360000000 -0.2366520000000 1.0  -3.84
Fe     4 -0.1982440000000 -0.2976360000000  0.2366520000000 1.0  -3.84
Fe     4 -0.0293790000000 -0.1824320000000  0.5000000000000 1.0  -3.84
Fe     4 -0.5293790000000  0.1824320000000  0.5000000000000 1.0  -3.84
END
