TITL LFSO-Li4Fe3S3O2-201029-085926-2bd4fa -0.0007 533.339546 -1.03440378E+004 23.8470 24.0958 24 (P3) n - 1
REM
REM Run started: Thu, 29 Oct 2020 21:01:05 +0000 in /lustre/scratch/uccabz1/launch_tmp/launcher_2020-10-29-08-59-24-345571
REM CASTEP 20.1 from code version af48c487+ pr-geom-scf-spinfix Tue Jun 2 15:39:59 2020 +0100
REM Functional Perdew Burke Ernzerhof Relativity Koelling-Harmon Dispersion off
REM Cut-off 340.0000 eV Grid scale 1.7500 Gmax 16.5316 1/A FBSC none
REM MP grid 3 3 2 Offset 0.000 0.000 0.000 No. kpts 5 Spacing 0.07
REM Total runtime: 47060.2 s
REM Overall efficiency: 68.5385 %
REM
REM
REM
REM compiler GCC version 4.9.2
REM options -cpp -iprefix /lustre/shared/ucl/apps/gcc/4.9.2/bin/../lib/gcc/x86_64-unknown-linux-gnu/4.9.2/ -mtune=corei7 -march=x86-64 -g -Og
REM COMMAND_LINE
REM seed -963745994 1134245242 2102576761 1607863617 -1611999612 2128876572 746459260 753890171 -383463221 -823830362 -291822134 1734310438
REM
REM S 3|1.8|5|6|7|30:31:32(qc=5)
REM O 2|1.5|12|13|15|20:21(qc=5)
REM Li 1|1.3|8|9|10|10U:20(qc=5)
REM Fe 3|2.2|2.0|1.0|8|9|10|40:41:32(qc=5)
REM Fe d:4.0 
REM
CELL 1.54180    7.71348    7.71348   10.35078   90.00000   90.00000  120.00000
LATT -1
SFAC Li O  S  Fe 
Li     1  0.2044070000000  0.2229440000000  0.3252770000000 1.0  -0.02
Li     1  0.0185360000000 -0.2044070000000  0.3252770000000 1.0  -0.02
Li     1 -0.2229440000000 -0.0185360000000  0.3252770000000 1.0  -0.02
Li     1 -0.3969900000000  0.0667070000000 -0.4427970000000 1.0  -0.00
Li     1  0.4636970000000  0.3969900000000 -0.4427970000000 1.0  -0.00
Li     1 -0.0667070000000 -0.4636970000000 -0.4427970000000 1.0  -0.00
Li     1 -0.0000000000000  0.0000000000000 -0.4241360000000 1.0   0.00
Li     1 -0.3333330000000  0.3333330000000  0.2391400000000 1.0  -0.05
O      2 -0.0797580000000 -0.4198330000000  0.1710690000000 1.0   0.25
O      2 -0.3400750000000  0.0797580000000  0.1710690000000 1.0   0.25
O      2  0.4198330000000  0.3400750000000  0.1710690000000 1.0   0.25
O      2 -0.0000000000000  0.0000000000000  0.2025210000000 1.0   0.26
S      3 -0.2549800000000 -0.3158100000000 -0.5171120000000 1.0   0.03
S      3 -0.0608300000000  0.2549800000000 -0.5171120000000 1.0   0.03
S      3  0.3158100000000  0.0608300000000 -0.5171120000000 1.0   0.03
S      3 -0.3340800000000 -0.1844250000000 -0.0791140000000 1.0   0.19
S      3  0.1496550000000  0.3340800000000 -0.0791140000000 1.0   0.19
S      3  0.1844250000000 -0.1496550000000 -0.0791140000000 1.0   0.19
Fe     4 -0.1333380000000 -0.2389230000000  0.0735460000000 1.0   3.77
Fe     4 -0.1055850000000  0.1333380000000  0.0735460000000 1.0   3.77
Fe     4  0.2389230000000  0.1055850000000  0.0735460000000 1.0   3.77
Fe     4  0.0749260000000  0.5451340000000  0.0439720000000 1.0   3.66
Fe     4  0.4702080000000 -0.0749260000000  0.0439720000000 1.0   3.66
Fe     4 -0.5451340000000 -0.4702080000000  0.0439720000000 1.0   3.66
END
