TITL LFSO-Li2Fe2S2O-201022-064358-68dd39 0.0217 257.370515 -6.33838448E+003 8.00000 15.5128 14 (P3) n - 1
REM
REM Run started: Thu, 22 Oct 2020 10:41:16 +0100 in /lustre/scratch/uccabz1/launch_tmp/launcher_2020-10-22-05-43-56-266570
REM CASTEP 20.1 from code version af48c487+ pr-geom-scf-spinfix Tue Jun 2 15:39:59 2020 +0100
REM Functional Perdew Burke Ernzerhof Relativity Koelling-Harmon Dispersion off
REM Cut-off 340.0000 eV Grid scale 1.7500 Gmax 16.5316 1/A FBSC none
REM MP grid 3 3 3 Offset 0.000 0.000 0.000 No. kpts 8 Spacing 0.07
REM Total runtime: 16154 s
REM Overall efficiency: 93.5 %
REM
REM
REM
REM compiler GCC version 4.9.2
REM options -cpp -iprefix /lustre/shared/ucl/apps/gcc/4.9.2/bin/../lib/gcc/x86_64-unknown-linux-gnu/4.9.2/ -mtune=corei7 -march=x86-64 -g -Og
REM COMMAND_LINE
REM seed 1004189263 -832619862 910125501 -1622521093 -1119635238 863951583 -897567684 1426594868 178111512 1650235681 -1327064406 1126859908
REM
REM S 3|1.8|5|6|7|30:31:32(qc=5)
REM O 2|1.5|12|13|15|20:21(qc=5)
REM Li 1|1.3|8|9|10|10U:20(qc=5)
REM Fe 3|2.2|2.0|1.0|8|9|10|40:41:32(qc=5)
REM Fe d:4.0 
REM
CELL 1.54180    6.36763    6.83164    6.83164  120.00000   90.00000   90.00000
LATT -1
SFAC Li O  S  Fe 
Li     1 -0.1225730000000 -0.4203050000000  0.0735230000000 1.0   0.01
Li     1 -0.1225730000000 -0.0735230000000 -0.4938280000000 1.0   0.01
Li     1 -0.1225730000000  0.4938280000000  0.4203050000000 1.0   0.01
Li     1  0.3150530000000 -0.3333330000000  0.3333330000000 1.0  -0.13
O      2  0.1268030000000  0.3333330000000 -0.3333330000000 1.0   0.20
O      2  0.0206900000000 -0.3333330000000  0.3333330000000 1.0   0.04
S      3 -0.4679440000000 -0.3134010000000  0.0330450000000 1.0   0.04
S      3 -0.4679440000000 -0.0330450000000 -0.3464460000000 1.0   0.04
S      3 -0.4679440000000  0.3464460000000  0.3134010000000 1.0   0.04
S      3  0.0436410000000 -0.0000000000000  0.0000000000000 1.0   0.09
Fe     4  0.2464360000000  0.1892930000000 -0.1613460000000 1.0   3.79
Fe     4  0.2464360000000  0.1613460000000  0.3506390000000 1.0   3.79
Fe     4  0.2464360000000 -0.3506390000000 -0.1892930000000 1.0   3.79
Fe     4 -0.3778700000000 -0.0000000000000  0.0000000000000 1.0  -3.71
END
