TITL LFSO-Li6FeSO3-201027-210227-273264 -0.0237 191.773484 -3.67765516E+003 3.94651 4.10194 11 (P3) n - 1
REM
REM Run started: Tue, 27 Oct 2020 21:50:16 +0000 in /lustre/scratch/uccabz1/launch_tmp/launcher_2020-10-27-21-02-25-843912
REM CASTEP 20.1 from code version af48c487+ pr-geom-scf-spinfix Tue Jun 2 15:39:59 2020 +0100
REM Functional Perdew Burke Ernzerhof Relativity Koelling-Harmon Dispersion off
REM Cut-off 340.0000 eV Grid scale 1.7500 Gmax 16.5316 1/A FBSC none
REM MP grid 5 2 2 Offset 0.000 0.000 0.000 No. kpts 10 Spacing 0.07
REM Total runtime: 2890.46 s
REM Overall efficiency: 63 %
REM
REM
REM
REM compiler GCC version 4.9.2
REM options -cpp -iprefix /lustre/shared/ucl/apps/gcc/4.9.2/bin/../lib/gcc/x86_64-unknown-linux-gnu/4.9.2/ -mtune=corei7 -march=x86-64 -g -Og
REM COMMAND_LINE
REM seed 1494535325 -130631894 -362676060 -2103643866 -1795042140 1812740704 -450586455 -1529579279 -1932529441 -2053999965 221511715 -1945111355
REM
REM S 3|1.8|5|6|7|30:31:32(qc=5)
REM O 2|1.5|12|13|15|20:21(qc=5)
REM Li 1|1.3|8|9|10|10U:20(qc=5)
REM Fe 3|2.2|2.0|1.0|8|9|10|40:41:32(qc=5)
REM Fe d:4.0 
REM
CELL 1.54180    3.02456    8.55653    8.55653  120.00000   90.00000   90.00000
LATT -1
SFAC Li O  S  Fe 
Li     1 -0.1042620000000 -0.3326080000000 -0.1478770000000 1.0  -0.02
Li     1 -0.1042620000000  0.1847310000000  0.3326080000000 1.0  -0.02
Li     1 -0.1042620000000  0.1478770000000 -0.1847310000000 1.0  -0.02
Li     1 -0.1002260000000 -0.2528200000000  0.1495330000000 1.0  -0.00
Li     1 -0.1002260000000  0.4023540000000  0.2528200000000 1.0  -0.00
Li     1 -0.1002260000000 -0.1495330000000 -0.4023540000000 1.0  -0.00
O      2  0.3850600000000  0.0128790000000 -0.2224780000000 1.0   0.10
O      2  0.3850600000000 -0.2353570000000 -0.0128790000000 1.0   0.10
O      2  0.3850600000000  0.2224780000000  0.2353570000000 1.0   0.10
S      3  0.3540030000000 -0.3333330000000  0.3333330000000 1.0   0.01
Fe     4  0.4012030000000  0.0000000000000 -0.0000000000000 1.0   3.71
END
