TITL LFSO-LiFe3S4O-201028-110415-6b18d1 0.0256 151.320718 -4.43577035E+003 6.61188 9.51488 9 (F222) n - 1
REM
REM Run started: Wed, 28 Oct 2020 12:59:28 +0000 in /scratch/scratch/uccabz1/launch_tmp/launcher_2020-10-28-11-04-14-241337
REM CASTEP 19.11| from code version Version unavailable
REM Functional Perdew Burke Ernzerhof Relativity Koelling-Harmon Dispersion off
REM Cut-off 340.0000 eV Grid scale 1.7500 Gmax 16.5316 1/A FBSC none
REM MP grid 4 4 5 Offset 0.000 0.000 0.000 No. kpts 26 Spacing 0.07
REM Total runtime: 9152.94 s
REM Overall efficiency: 88.6667 %
REM
REM
REM
REM compiler GCC version 4.9.2
REM options -cpp -iprefix /scratch/UCL/applications/gcc/4.9.2/bin/../lib/gcc/x86_64-unknown-linux-gnu/4.9.2/ -mtune=corei7 -march=x86-64 -g -O2
REM COMMAND_LINE
REM seed 414637444 1711587171 1281045415 -757334504 -587420704 27899426 243229802 34878217 1912116876 -1385849110 1784596431 -1303008711
REM
REM S 3|1.8|5|6|7|30:31:32(qc=5)
REM O 2|1.5|12|13|15|20:21(qc=5)
REM Li 1|1.3|8|9|10|10U:20(qc=5)
REM Fe 3|2.2|2.0|1.0|8|9|10|40:41:32(qc=5)
REM Fe d:4.0 
REM
CELL 1.54180    8.01517    8.01517    4.52840  105.13033  105.13033  134.83472
LATT -1
SFAC Li O  S  Fe 
Li     1  0.2500000000000 -0.2500000000000  0.5000000000000 1.0   0.04
O      2  0.5000000000000  0.5000000000000  0.0000000000000 1.0   0.19
S      3  0.3127680000000  0.0430790000000  0.3233890000000 1.0   0.07
S      3 -0.2803100000000 -0.0106210000000 -0.3233890000000 1.0   0.07
S      3  0.0106210000000  0.2803100000000  0.3233890000000 1.0   0.07
S      3 -0.0430790000000 -0.3127680000000 -0.3233890000000 1.0   0.07
Fe     4 -0.5047840000000  0.5047840000000  0.5000000000000 1.0   3.77
Fe     4  0.0047840000000 -0.0047840000000  0.5000000000000 1.0   3.77
Fe     4 -0.2500000000000  0.2500000000000 -0.5000000000000 1.0  -1.42
END
