TITL LFSO-Li3FeS2O-201023-093240-ab29b3 -0.0655 408.224418 -7.52174083E+003 12.9963 13.4330 21 (Pmm2) n - 1
REM
REM Run started: Fri, 23 Oct 2020 17:31:47 +0100 in /lustre/scratch/uccabz1/launch_tmp/launcher_2020-10-23-08-32-38-828150
REM CASTEP 20.1 from code version af48c487+ pr-geom-scf-spinfix Tue Jun 2 15:39:59 2020 +0100
REM Functional Perdew Burke Ernzerhof Relativity Koelling-Harmon Dispersion off
REM Cut-off 340.0000 eV Grid scale 1.7500 Gmax 16.5316 1/A FBSC none
REM MP grid 5 2 1 Offset 0.000 0.000 0.000 No. kpts 3 Spacing 0.07
REM Total runtime: 31303.9 s
REM Overall efficiency: 78.5833 %
REM
REM
REM
REM compiler GCC version 4.9.2
REM options -cpp -iprefix /lustre/shared/ucl/apps/gcc/4.9.2/bin/../lib/gcc/x86_64-unknown-linux-gnu/4.9.2/ -mtune=corei7 -march=x86-64 -g -Og
REM COMMAND_LINE
REM seed 1382014501 -1670644768 -1209718632 32965328 469345678 1737757168 -385310755 1378183735 -1962937847 -1438839651 18723493 1541832403
REM
REM S 3|1.8|5|6|7|30:31:32(qc=5)
REM O 2|1.5|12|13|15|20:21(qc=5)
REM Li 1|1.3|8|9|10|10U:20(qc=5)
REM Fe 3|2.2|2.0|1.0|8|9|10|40:41:32(qc=5)
REM Fe d:4.0 
REM
CELL 1.54180    3.43445    7.06640   16.82070   90.00000   90.00000   90.00000
LATT -1
SFAC Li O  S  Fe 
Li     1 -0.1821760000000  0.3167950000000 -0.4121200000000 1.0   0.02
Li     1 -0.1821760000000 -0.3167950000000  0.4121200000000 1.0   0.02
Li     1 -0.1821760000000  0.3167950000000  0.4121200000000 1.0   0.02
Li     1 -0.1821760000000 -0.3167950000000 -0.4121200000000 1.0   0.02
Li     1  0.3686790000000 -0.1799460000000 -0.1609950000000 1.0  -0.02
Li     1  0.3686790000000  0.1799460000000  0.1609950000000 1.0  -0.02
Li     1  0.3686790000000 -0.1799460000000  0.1609950000000 1.0  -0.02
Li     1  0.3686790000000  0.1799460000000 -0.1609950000000 1.0  -0.02
Li     1  0.3076280000000  0.5000000000000 -0.5000000000000 1.0   0.03
O      2 -0.1919260000000  0.0000000000000 -0.1794200000000 1.0   0.32
O      2 -0.1919260000000  0.0000000000000  0.1794200000000 1.0   0.32
O      2 -0.1925750000000 -0.5000000000000  0.5000000000000 1.0   0.01
S      3  0.3139280000000 -0.2356100000000  0.3261110000000 1.0   0.32
S      3  0.3139280000000  0.2356100000000 -0.3261110000000 1.0   0.32
S      3  0.3139280000000 -0.2356100000000 -0.3261110000000 1.0   0.32
S      3  0.3139280000000  0.2356100000000  0.3261110000000 1.0   0.32
S      3 -0.5502650000000 -0.5000000000000 -0.0944340000000 1.0  -0.10
S      3 -0.5502650000000 -0.5000000000000  0.0944340000000 1.0  -0.10
Fe     4 -0.1814700000000  0.0000000000000  0.2906340000000 1.0   3.94
Fe     4 -0.1814700000000  0.0000000000000 -0.2906340000000 1.0   3.94
Fe     4 -0.0418660000000 -0.5000000000000  0.0000000000000 1.0   3.32
END
