TITL LFSO-Li2Fe2S2O-201022-023843-05a8ff -0.0036 407.885167 -9.50417275E+003 23.5193 23.7866 21 (P-4) n - 1
REM
REM Run started: Thu, 22 Oct 2020 23:02:01 +0100 in /lustre/scratch/uccabz1/launch_tmp/launcher_2020-10-22-01-38-42-140309
REM CASTEP 20.1 from code version af48c487+ pr-geom-scf-spinfix Tue Jun 2 15:39:59 2020 +0100
REM Functional Perdew Burke Ernzerhof Relativity Koelling-Harmon Dispersion off
REM Cut-off 340.0000 eV Grid scale 1.7500 Gmax 16.5316 1/A FBSC none
REM MP grid 4 4 1 Offset 0.000 0.000 0.000 No. kpts 4 Spacing 0.07
REM Total runtime: 73651.9 s
REM Overall efficiency: 75.375 %
REM
REM
REM
REM compiler GCC version 4.9.2
REM options -cpp -iprefix /lustre/shared/ucl/apps/gcc/4.9.2/bin/../lib/gcc/x86_64-unknown-linux-gnu/4.9.2/ -mtune=corei7 -march=x86-64 -g -Og
REM COMMAND_LINE
REM seed 478355931 811480811 1333439643 -1241101559 -20617343 -1474809327 -1464396687 -1030917714 -1116343708 -554470338 -503248667 1899750439
REM
REM S 3|1.8|5|6|7|30:31:32(qc=5)
REM O 2|1.5|12|13|15|20:21(qc=5)
REM Li 1|1.3|8|9|10|10U:20(qc=5)
REM Fe 3|2.2|2.0|1.0|8|9|10|40:41:32(qc=5)
REM Fe d:4.0 
REM
CELL 1.54180    4.68003    4.68003   18.62260   90.00000   90.00000   90.00000
LATT -1
SFAC Li O  S  Fe 
Li     1  0.2309300000000 -0.2911960000000  0.0366840000000 1.0   0.00
Li     1 -0.2309300000000  0.2911960000000  0.0366840000000 1.0   0.00
Li     1 -0.2911960000000 -0.2309300000000 -0.0366840000000 1.0   0.00
Li     1  0.2911960000000  0.2309300000000 -0.0366840000000 1.0   0.00
Li     1 -0.0000000000000 -0.5000000000000 -0.1243910000000 1.0  -0.03
Li     1  0.5000000000000 -0.0000000000000  0.1243910000000 1.0  -0.03
O      2 -0.0000000000000 -0.5000000000000 -0.0249840000000 1.0   0.00
O      2  0.5000000000000 -0.0000000000000  0.0249840000000 1.0   0.00
O      2  0.5000000000000 -0.5000000000000 -0.5000000000000 1.0   0.14
S      3 -0.2367850000000 -0.2187850000000  0.3709760000000 1.0   0.18
S      3  0.2367850000000  0.2187850000000  0.3709760000000 1.0   0.18
S      3 -0.2187850000000  0.2367850000000 -0.3709760000000 1.0   0.18
S      3  0.2187850000000 -0.2367850000000 -0.3709760000000 1.0   0.18
S      3 -0.5000000000000  0.5000000000000  0.1863780000000 1.0   0.02
S      3 -0.5000000000000  0.5000000000000 -0.1863780000000 1.0   0.02
Fe     4 -0.2791720000000  0.2606450000000  0.4241230000000 1.0   3.73
Fe     4  0.2791720000000 -0.2606450000000  0.4241230000000 1.0   3.73
Fe     4  0.2606450000000  0.2791720000000 -0.4241230000000 1.0   3.73
Fe     4 -0.2606450000000 -0.2791720000000 -0.4241230000000 1.0   3.73
Fe     4 -0.5000000000000 -0.0000000000000  0.2685920000000 1.0   3.87
Fe     4 -0.0000000000000  0.5000000000000 -0.2685920000000 1.0   3.87
END
