TITL LFSO-Li2FeSO-201025-020057-b4934c -0.0266 88.802678 -2.00189235E+003 3.40096 3.63716 5 (Pmm2) n - 1
REM
REM Run started: Sun, 25 Oct 2020 02:18:02 +0000 in /lustre/scratch/uccabz1/launch_tmp/launcher_2020-10-25-02-00-56-309971
REM CASTEP 20.1 from code version af48c487+ pr-geom-scf-spinfix Tue Jun 2 15:39:59 2020 +0100
REM Functional Perdew Burke Ernzerhof Relativity Koelling-Harmon Dispersion off
REM Cut-off 340.0000 eV Grid scale 1.7500 Gmax 16.5316 1/A FBSC none
REM MP grid 5 4 2 Offset 0.000 0.000 0.000 No. kpts 6 Spacing 0.07
REM Total runtime: 1221.33 s
REM Overall efficiency: 86.1667 %
REM
REM
REM
REM compiler GCC version 4.9.2
REM options -cpp -iprefix /lustre/shared/ucl/apps/gcc/4.9.2/bin/../lib/gcc/x86_64-unknown-linux-gnu/4.9.2/ -mtune=corei7 -march=x86-64 -g -Og
REM COMMAND_LINE
REM seed -1361033204 -1553408939 -427623229 1983320808 1619065334 -1955634531 57845494 -347441418 1087121907 -1993925477 -1364343677 -696112187
REM
REM S 3|1.8|5|6|7|30:31:32(qc=5)
REM O 2|1.5|12|13|15|20:21(qc=5)
REM Li 1|1.3|8|9|10|10U:20(qc=5)
REM Fe 3|2.2|2.0|1.0|8|9|10|40:41:32(qc=5)
REM Fe d:4.0 
REM
CELL 1.54180    3.08839    3.61053    7.96384   90.00000   90.00000   90.00000
LATT -1
SFAC Li O  S  Fe 
Li     1 -0.5000000000000 -0.4322690000000 -0.3659510000000 1.0  -0.06
Li     1 -0.5000000000000 -0.4322690000000  0.3659510000000 1.0  -0.06
O      2  0.0000000000000  0.5500220000000 -0.5000000000000 1.0   0.37
S      3  0.0000000000000 -0.3236930000000  0.0000000000000 1.0  -0.07
Fe     4  0.5000000000000  0.1795050000000  0.0000000000000 1.0   3.22
END
