TITL LFSO-Li5FeSO3-201026-210144-cddee3 0.0454 290.359657 -6.95679584E+003 8.58767 9.23118 20 (P21) n - 1
REM
REM Run started: Tue, 27 Oct 2020 03:31:48 +0000 in /scratch/scratch/uccabz1/launch_tmp/launcher_2020-10-26-23-47-51-686476
REM CASTEP 19.11| from code version Version unavailable
REM Functional Perdew Burke Ernzerhof Relativity Koelling-Harmon Dispersion off
REM Cut-off 340.0000 eV Grid scale 1.7500 Gmax 16.5316 1/A FBSC none
REM MP grid 5 3 2 Offset 0.000 0.000 0.000 No. kpts 9 Spacing 0.07
REM Total runtime: 21061.4 s
REM Overall efficiency: 87.75 %
REM
REM
REM
REM compiler GCC version 4.9.2
REM options -cpp -iprefix /lustre/shared/ucl/apps/gcc/4.9.2/bin/../lib/gcc/x86_64-unknown-linux-gnu/4.9.2/ -mtune=corei7 -march=x86-64 -g -Og
REM COMMAND_LINE
REM seed 1490763762 466763020 1710513687 975647941 156817350 -18845624 2064666272 -1993204850 526664132 -541108452 -1523713860 -1416175452
REM
REM S 3|1.8|5|6|7|30:31:32(qc=5)
REM O 2|1.5|12|13|15|20:21(qc=5)
REM Li 1|1.3|8|9|10|10U:20(qc=5)
REM Fe 3|2.2|2.0|1.0|8|9|10|40:41:32(qc=5)
REM Fe d:4.0 
REM
CELL 1.54180    3.23700    9.75115   12.52257  132.72758   90.00000   90.00000
LATT -1
SFAC Li O  S  Fe 
Li     1  0.4673390000000  0.2447950000000 -0.1497570000000 1.0   0.03
Li     1 -0.0326610000000 -0.2447950000000  0.1497570000000 1.0   0.03
Li     1  0.0853300000000 -0.3853350000000 -0.4815760000000 1.0  -0.03
Li     1 -0.4146700000000  0.3853350000000  0.4815760000000 1.0  -0.03
Li     1 -0.3536260000000 -0.1282630000000 -0.3703170000000 1.0  -0.03
Li     1  0.1463740000000  0.1282630000000  0.3703170000000 1.0  -0.03
Li     1  0.4717030000000 -0.3023750000000  0.3415330000000 1.0  -0.02
Li     1 -0.0282970000000  0.3023750000000 -0.3415330000000 1.0  -0.02
Li     1  0.4163260000000  0.0702890000000 -0.4003080000000 1.0  -0.05
Li     1 -0.0836740000000 -0.0702890000000  0.4003080000000 1.0  -0.05
O      2  0.0875780000000  0.3269580000000  0.3714860000000 1.0   0.12
O      2  0.5875780000000 -0.3269580000000 -0.3714860000000 1.0   0.12
O      2  0.0151300000000 -0.1973830000000  0.4764090000000 1.0   0.35
O      2  0.5151300000000  0.1973830000000 -0.4764090000000 1.0   0.35
O      2 -0.0597500000000  0.1541290000000 -0.2711890000000 1.0   0.33
O      2  0.4402500000000 -0.1541290000000  0.2711890000000 1.0   0.33
S      3  0.0767330000000  0.6463320000000 -0.1096220000000 1.0  -0.07
S      3 -0.4232670000000 -0.6463320000000  0.1096220000000 1.0  -0.07
Fe     4  0.0810670000000  0.3210530000000  0.2209950000000 1.0   3.66
Fe     4 -0.4189330000000 -0.3210530000000 -0.2209950000000 1.0   3.66
END
