TITL LFSO-Li3FeS2O-201022-183626-83b9c3 -0.0341 129.114863 -2.50498091E+003 3.02649 4.37401 7 (Pm) n - 1
REM
REM Run started: Thu, 22 Oct 2020 19:54:32 +0100 in /lustre/scratch/uccabz1/launch_tmp/launcher_2020-10-22-17-36-24-397497
REM CASTEP 20.1 from code version af48c487+ pr-geom-scf-spinfix Tue Jun 2 15:39:59 2020 +0100
REM Functional Perdew Burke Ernzerhof Relativity Koelling-Harmon Dispersion off
REM Cut-off 340.0000 eV Grid scale 1.7500 Gmax 16.5316 1/A FBSC none
REM MP grid 5 6 2 Offset 0.000 0.000 0.000 No. kpts 15 Spacing 0.07
REM Total runtime: 5133.08 s
REM Overall efficiency: 79 %
REM
REM
REM
REM compiler GCC version 4.9.2
REM options -cpp -iprefix /lustre/shared/ucl/apps/gcc/4.9.2/bin/../lib/gcc/x86_64-unknown-linux-gnu/4.9.2/ -mtune=corei7 -march=x86-64 -g -Og
REM COMMAND_LINE
REM seed -1932524766 128163699 -1607410008 288003371 1210197854 1951854439 241476238 -1220960367 1263293849 94049331 345994801 661333023
REM
REM S 3|1.8|5|6|7|30:31:32(qc=5)
REM O 2|1.5|12|13|15|20:21(qc=5)
REM Li 1|1.3|8|9|10|10U:20(qc=5)
REM Fe 3|2.2|2.0|1.0|8|9|10|40:41:32(qc=5)
REM Fe d:4.0 
REM
CELL 1.54180    5.25006    3.65701    9.93550   90.00000   90.00000  137.40160
LATT -1
SFAC Li O  S  Fe 
Li     1  0.4306330000000  0.5029560000000 -0.1184090000000 1.0   0.05
Li     1  0.4306330000000  0.5029560000000  0.1184090000000 1.0   0.05
Li     1 -0.1815590000000 -0.5634290000000  0.5000000000000 1.0  -0.12
O      2 -0.0767270000000  0.0033760000000  0.0000000000000 1.0  -0.64
S      3  0.3183920000000 -0.0597470000000 -0.3403640000000 1.0   0.06
S      3  0.3183920000000 -0.0597470000000  0.3403640000000 1.0   0.06
Fe     4  0.3179990000000  0.4407880000000 -0.5000000000000 1.0   3.58
END
