TITL LFSO-Li2Fe4S3O2-201026-112104-649556 -0.0140 195.802612 -5.63068124E+003 -13.9981 14.3310 11 (P2) n - 1
REM
REM Run started: Mon, 26 Oct 2020 14:26:14 +0000 in /lustre/scratch/uccabz1/launch_tmp/launcher_2020-10-26-11-21-02-477860
REM CASTEP 20.1 from code version af48c487+ pr-geom-scf-spinfix Tue Jun 2 15:39:59 2020 +0100
REM Functional Perdew Burke Ernzerhof Relativity Koelling-Harmon Dispersion off
REM Cut-off 340.0000 eV Grid scale 1.7500 Gmax 16.5316 1/A FBSC none
REM MP grid 4 3 3 Offset 0.000 0.000 0.000 No. kpts 12 Spacing 0.07
REM Total runtime: 12556.5 s
REM Overall efficiency: 92.625 %
REM
REM
REM
REM compiler GCC version 4.9.2
REM options -cpp -iprefix /lustre/shared/ucl/apps/gcc/4.9.2/bin/../lib/gcc/x86_64-unknown-linux-gnu/4.9.2/ -mtune=corei7 -march=x86-64 -g -Og
REM COMMAND_LINE
REM seed -2033260197 -1313555753 -495047682 -834382102 -2019958050 999675872 13668665 -953637080 -1817834998 2005408422 989122215 -1864123648
REM
REM S 3|1.8|5|6|7|30:31:32(qc=5)
REM O 2|1.5|12|13|15|20:21(qc=5)
REM Li 1|1.3|8|9|10|10U:20(qc=5)
REM Fe 3|2.2|2.0|1.0|8|9|10|40:41:32(qc=5)
REM Fe d:4.0 
REM
CELL 1.54180    4.55143    6.77680    6.34818   90.00000   90.00000   89.80270
LATT -1
SFAC Li O  S  Fe 
Li     1  0.2740280000000 -0.2084350000000 -0.0654690000000 1.0   0.04
Li     1 -0.2740280000000  0.2084350000000 -0.0654690000000 1.0   0.04
O      2  0.0456580000000 -0.2868740000000 -0.2937070000000 1.0  -0.07
O      2 -0.0456580000000  0.2868740000000 -0.2937070000000 1.0  -0.07
S      3 -0.2888390000000 -0.1860110000000 -0.3276900000000 1.0  -0.14
S      3  0.2888390000000  0.1860110000000 -0.3276900000000 1.0  -0.14
S      3  0.5000000000000 -0.5000000000000  0.1681900000000 1.0  -0.05
Fe     4 -0.2515410000000 -0.1121870000000  0.3131260000000 1.0  -3.35
Fe     4  0.2515410000000  0.1121870000000  0.3131260000000 1.0  -3.35
Fe     4  0.2678250000000 -0.3455990000000  0.4489670000000 1.0  -3.45
Fe     4 -0.2678250000000  0.3455990000000  0.4489670000000 1.0  -3.45
END
