TITL LFSO-Li6FeSO3-201028-063647-60dbb5 0.0503 327.910862 -7.35814734E+003 -8.00000 8.24344 22 (P3) n - 1
REM
REM Run started: Wed, 28 Oct 2020 12:23:54 +0000 in /scratch/scratch/uccabz1/launch_tmp/launcher_2020-10-28-06-36-46-100290
REM CASTEP 19.11| from code version Version unavailable
REM Functional Perdew Burke Ernzerhof Relativity Koelling-Harmon Dispersion off
REM Cut-off 340.0000 eV Grid scale 1.7500 Gmax 16.5316 1/A FBSC none
REM MP grid 3 3 2 Offset 0.000 0.000 0.000 No. kpts 5 Spacing 0.07
REM Total runtime: 21984.9 s
REM Overall efficiency: 76.5 %
REM
REM
REM
REM compiler GCC version 4.9.2
REM options -cpp -iprefix /scratch/UCL/applications/gcc/4.9.2/bin/../lib/gcc/x86_64-unknown-linux-gnu/4.9.2/ -mtune=corei7 -march=x86-64 -g -O2
REM COMMAND_LINE
REM seed 668519878 1944621158 152059556 -1401931603 1308540825 747263986 -179803401 699289007 -907631203 969119533 -148483018 929212319
REM
REM S 3|1.8|5|6|7|30:31:32(qc=5)
REM O 2|1.5|12|13|15|20:21(qc=5)
REM Li 1|1.3|8|9|10|10U:20(qc=5)
REM Fe 3|2.2|2.0|1.0|8|9|10|40:41:32(qc=5)
REM Fe d:4.0 
REM
CELL 1.54180    6.77602    6.77602    8.24662   90.00000   90.00000  120.00000
LATT -1
SFAC Li O  S  Fe 
Li     1 -0.4691140000000 -0.0750970000000 -0.0045450000000 1.0  -0.03
Li     1 -0.6059830000000  0.4691140000000 -0.0045450000000 1.0  -0.03
Li     1  0.0750970000000  0.6059830000000 -0.0045450000000 1.0  -0.03
Li     1 -0.3247920000000 -0.2304280000000  0.2850950000000 1.0   0.03
Li     1  0.0943640000000  0.3247920000000  0.2850950000000 1.0   0.03
Li     1  0.2304280000000 -0.0943640000000  0.2850950000000 1.0   0.03
Li     1 -0.3693830000000 -0.1052460000000 -0.3972370000000 1.0  -0.00
Li     1  0.2641370000000  0.3693830000000 -0.3972370000000 1.0  -0.00
Li     1  0.1052460000000 -0.2641370000000 -0.3972370000000 1.0  -0.00
Li     1 -0.0794290000000  0.2683170000000 -0.1507600000000 1.0   0.07
Li     1  0.3477470000000  0.0794290000000 -0.1507600000000 1.0   0.07
Li     1 -0.2683170000000 -0.3477470000000 -0.1507600000000 1.0   0.07
O      2  0.0753840000000  0.3174360000000  0.0531140000000 1.0  -0.11
O      2  0.2420520000000 -0.0753840000000  0.0531140000000 1.0  -0.11
O      2 -0.3174360000000 -0.2420520000000  0.0531140000000 1.0  -0.11
O      2 -0.5569830000000 -0.6058900000000 -0.2228070000000 1.0  -0.10
O      2 -0.0489060000000  0.5569830000000 -0.2228070000000 1.0  -0.10
O      2  0.6058900000000  0.0489060000000 -0.2228070000000 1.0  -0.10
S      3  0.3333330000000 -0.3333330000000  0.4202520000000 1.0  -0.00
S      3 -0.0000000000000  0.0000000000000  0.4711300000000 1.0  -0.01
Fe     4 -0.0000000000000  0.0000000000000  0.0462300000000 1.0  -3.77
Fe     4 -0.3333330000000  0.3333330000000 -0.3234860000000 1.0  -3.78
END
