TITL LFSO-LiFe3S4O-201028-185250-f2b149 -0.0032 169.803884 -4.43840140E+003 -9.00000 11.4876 9 (Cm) n - 1
REM
REM Run started: Wed, 28 Oct 2020 21:15:27 +0000 in /scratch/scratch/uccabz1/launch_tmp/launcher_2020-10-28-18-52-49-203972
REM CASTEP 19.11| from code version Version unavailable
REM Functional Perdew Burke Ernzerhof Relativity Koelling-Harmon Dispersion off
REM Cut-off 340.0000 eV Grid scale 1.7500 Gmax 16.5316 1/A FBSC none
REM MP grid 4 4 3 Offset 0.000 0.000 0.000 No. kpts 16 Spacing 0.07
REM Total runtime: 9378.66 s
REM Overall efficiency: 88.3636 %
REM
REM
REM
REM compiler GCC version 4.9.2
REM options -cpp -iprefix /scratch/UCL/applications/gcc/4.9.2/bin/../lib/gcc/x86_64-unknown-linux-gnu/4.9.2/ -mtune=corei7 -march=x86-64 -g -O2
REM COMMAND_LINE
REM seed 1159819546 -333901088 -1912328598 1427045672 1708383802 132068281 523422106 97688329 1692159481 528730 1254738296 -619796818
REM
REM S 3|1.8|5|6|7|30:31:32(qc=5)
REM O 2|1.5|12|13|15|20:21(qc=5)
REM Li 1|1.3|8|9|10|10U:20(qc=5)
REM Fe 3|2.2|2.0|1.0|8|9|10|40:41:32(qc=5)
REM Fe d:4.0 
REM
CELL 1.54180    5.74089    5.74089    6.65379  102.36729  102.36729  120.77131
LATT -1
SFAC Li O  S  Fe 
Li     1  0.4011250000000  0.4011250000000  0.3183880000000 1.0   0.01
O      2 -0.4103250000000 -0.4103250000000  0.6432080000000 1.0  -0.21
S      3  0.0829020000000  0.4008490000000 -0.0489020000000 1.0   0.35
S      3  0.4008490000000  0.0829020000000 -0.0489020000000 1.0   0.35
S      3  0.1660250000000 -0.1698400000000 -0.5508120000000 1.0   0.39
S      3 -0.1698400000000  0.1660250000000 -0.5508120000000 1.0   0.39
Fe     4 -0.3752970000000  0.2719500000000 -0.2945510000000 1.0  -3.46
Fe     4  0.2719500000000 -0.3752970000000 -0.2945510000000 1.0  -3.46
Fe     4 -0.0294240000000 -0.0294240000000 -0.3077390000000 1.0  -3.37
END
