TITL LFSO-Li4Fe3S4O-201029-023433-84f398 -0.0624 233.559966 -5.03948809E+003 11.9961 12.1482 12 (P-1) n - 1
REM
REM Run started: Thu, 29 Oct 2020 15:01:17 +0000 in /lustre/scratch/uccabz1/launch_tmp/launcher_2020-10-29-02-34-32-030767
REM CASTEP 20.1 from code version af48c487+ pr-geom-scf-spinfix Tue Jun 2 15:39:59 2020 +0100
REM Functional Perdew Burke Ernzerhof Relativity Koelling-Harmon Dispersion off
REM Cut-off 340.0000 eV Grid scale 1.7500 Gmax 16.5316 1/A FBSC none
REM MP grid 5 2 3 Offset 0.000 0.000 0.000 No. kpts 15 Spacing 0.07
REM Total runtime: 47866.1 s
REM Overall efficiency: 82.3333 %
REM
REM
REM
REM compiler GCC version 4.9.2
REM options -cpp -iprefix /lustre/shared/ucl/apps/gcc/4.9.2/bin/../lib/gcc/x86_64-unknown-linux-gnu/4.9.2/ -mtune=corei7 -march=x86-64 -g -Og
REM COMMAND_LINE
REM seed 1749377634 801138556 -885763512 911770952 -1706587588 1784629712 1069348002 -1334575496 58028862 -886446893 -1393462374 -1934619830
REM
REM S 3|1.8|5|6|7|30:31:32(qc=5)
REM O 2|1.5|12|13|15|20:21(qc=5)
REM Li 1|1.3|8|9|10|10U:20(qc=5)
REM Fe 3|2.2|2.0|1.0|8|9|10|40:41:32(qc=5)
REM Fe d:4.0 
REM
CELL 1.54180    3.98739   12.47211    6.84372  120.57588   59.21399  122.43070
LATT -1
SFAC Li O  S  Fe 
Li     1 -0.5365220000000  0.0448960000000  0.2682200000000 1.0  -0.05
Li     1  0.5365220000000 -0.0448960000000 -0.2682200000000 1.0  -0.05
Li     1  0.1192100000000  0.3927900000000 -0.0484620000000 1.0  -0.05
Li     1 -0.1192100000000 -0.3927900000000  0.0484620000000 1.0  -0.05
O      2 -0.5000000000000  0.0000000000000 -0.5000000000000 1.0   0.19
S      3  0.1803210000000  0.6070080000000  0.2970470000000 1.0   0.08
S      3 -0.1803210000000 -0.6070080000000 -0.2970470000000 1.0   0.08
S      3  0.2375120000000 -0.1825290000000 -0.0167820000000 1.0   0.10
S      3 -0.2375120000000  0.1825290000000  0.0167820000000 1.0   0.10
Fe     4 -0.5654740000000  0.1641210000000 -0.2314080000000 1.0   3.89
Fe     4  0.5654740000000 -0.1641210000000  0.2314080000000 1.0   3.89
Fe     4  0.5000000000000  0.5000000000000  0.5000000000000 1.0   3.89
END
