TITL LFSO-Li4Fe2S3O-201027-074004-fe9d15 0.0009 432.011392 -7.74776652E+003 0.408340E-04 15.6709 20 (P21) n - 1
REM
REM Run started: Tue, 27 Oct 2020 09:39:48 +0000 in /scratch/scratch/uccabz1/launch_tmp/launcher_2020-10-27-07-40-02-418612
REM CASTEP 19.11| from code version Version unavailable
REM Functional Perdew Burke Ernzerhof Relativity Koelling-Harmon Dispersion off
REM Cut-off 340.0000 eV Grid scale 1.7500 Gmax 16.5316 1/A FBSC none
REM MP grid 2 3 2 Offset 0.000 0.000 0.000 No. kpts 3 Spacing 0.07
REM Total runtime: 7238.68 s
REM Overall efficiency: 67.2 %
REM
REM
REM
REM compiler GCC version 4.9.2
REM options -cpp -iprefix /scratch/UCL/applications/gcc/4.9.2/bin/../lib/gcc/x86_64-unknown-linux-gnu/4.9.2/ -mtune=corei7 -march=x86-64 -g -O2
REM COMMAND_LINE
REM seed -1780388497 809665214 -1525835845 -623324700 -1657201197 1490315062 -26051212 -2059617098 -73369567 334044075 -169885080 264145399
REM
REM S 3|1.8|5|6|7|30:31:32(qc=5)
REM O 2|1.5|12|13|15|20:21(qc=5)
REM Li 1|1.3|8|9|10|10U:20(qc=5)
REM Fe 3|2.2|2.0|1.0|8|9|10|40:41:32(qc=5)
REM Fe d:4.0 
REM
CELL 1.54180    7.44716    6.81058    8.54372   85.52418   90.00000   90.00000
LATT -1
SFAC Li O  S  Fe 
Li     1 -0.2904770000000  0.3429540000000 -0.0007160000000 1.0   0.03
Li     1  0.2095230000000 -0.3429540000000  0.0007160000000 1.0   0.03
Li     1 -0.4392650000000  0.3213570000000  0.5366000000000 1.0  -0.03
Li     1  0.0607350000000 -0.3213570000000 -0.5366000000000 1.0  -0.03
Li     1  0.4899540000000 -0.4317910000000  0.2666140000000 1.0  -0.01
Li     1 -0.0100460000000  0.4317910000000 -0.2666140000000 1.0  -0.01
Li     1 -0.2629510000000 -0.1534700000000 -0.3119310000000 1.0   0.02
Li     1  0.2370490000000  0.1534700000000  0.3119310000000 1.0   0.02
O      2 -0.0601630000000  0.3264730000000 -0.0735340000000 1.0  -0.16
O      2  0.4398370000000 -0.3264730000000  0.0735340000000 1.0  -0.16
S      3 -0.4387240000000  0.0992810000000 -0.2094960000000 1.0   0.03
S      3  0.0612760000000 -0.0992810000000  0.2094960000000 1.0   0.03
S      3  0.2240830000000  0.3648710000000 -0.4760010000000 1.0   0.10
S      3 -0.2759170000000 -0.3648710000000  0.4760010000000 1.0   0.10
S      3 -0.4393400000000  0.1654600000000  0.2387470000000 1.0   0.01
S      3  0.0606600000000 -0.1654600000000 -0.2387470000000 1.0   0.01
Fe     4  0.2682390000000  0.0870080000000 -0.3012710000000 1.0   3.79
Fe     4 -0.2317610000000 -0.0870080000000  0.3012710000000 1.0   3.79
Fe     4  0.4888350000000 -0.0623470000000  0.0438720000000 1.0  -3.76
Fe     4 -0.0111650000000  0.0623470000000 -0.0438720000000 1.0  -3.76
END
