TITL LFSO-Li3FeS2O-201024-234603-c447f8 -0.0244 392.743092 -5.01276745E+003 6.00000 6.82700 14 (C2) n - 1
REM
REM Run started: Sun, 25 Oct 2020 01:30:59 +0000 in /scratch/scratch/uccabz1/launch_tmp/launcher_2020-10-24-22-46-00-962152
REM CASTEP 19.11| from code version Version unavailable
REM Functional Perdew Burke Ernzerhof Relativity Koelling-Harmon Dispersion off
REM Cut-off 340.0000 eV Grid scale 1.7500 Gmax 16.5316 1/A FBSC none
REM MP grid 2 3 2 Offset 0.000 0.000 0.000 No. kpts 6 Spacing 0.07
REM Total runtime: 11508.9 s
REM Overall efficiency: 80.6667 %
REM
REM
REM
REM compiler GCC version 4.9.2
REM options -cpp -iprefix /scratch/UCL/applications/gcc/4.9.2/bin/../lib/gcc/x86_64-unknown-linux-gnu/4.9.2/ -mtune=corei7 -march=x86-64 -g -O2
REM COMMAND_LINE
REM seed -974405336 -1143827862 -710365953 -1393096967 1078655746 1312076560 -593721968 -721253616 -350794558 -1143225937 31669674 576165471
REM
REM S 3|1.8|5|6|7|30:31:32(qc=5)
REM O 2|1.5|12|13|15|20:21(qc=5)
REM Li 1|1.3|8|9|10|10U:20(qc=5)
REM Fe 3|2.2|2.0|1.0|8|9|10|40:41:32(qc=5)
REM Fe d:4.0 
REM
CELL 1.54180   12.35356    7.49821    7.52221   93.48718   90.00000  145.46376
LATT -1
SFAC Li O  S  Fe 
Li     1  0.2197470000000 -0.1895880000000 -0.3714940000000 1.0  -0.02
Li     1  0.4093360000000  0.1895880000000  0.3714940000000 1.0  -0.02
Li     1  0.0765500000000 -0.3095000000000 -0.0672740000000 1.0  -0.03
Li     1  0.3860500000000  0.3095000000000  0.0672740000000 1.0  -0.03
Li     1 -0.5032150000000  0.1796060000000 -0.1131780000000 1.0  -0.09
Li     1 -0.6828210000000 -0.1796060000000  0.1131780000000 1.0  -0.09
O      2 -0.4923610000000  0.2666560000000  0.1489130000000 1.0   0.03
O      2  0.2409830000000 -0.2666560000000 -0.1489130000000 1.0   0.03
S      3  0.4777700000000  0.3896970000000 -0.3242490000000 1.0   0.01
S      3  0.0880730000000 -0.3896970000000  0.3242490000000 1.0   0.01
S      3  0.2286520000000  0.1623120000000 -0.2117620000000 1.0  -0.04
S      3  0.0663400000000 -0.1623120000000  0.2117620000000 1.0  -0.04
Fe     4  0.2645410000000  0.5176500000000 -0.1814480000000 1.0   3.15
Fe     4 -0.2531090000000 -0.5176500000000  0.1814480000000 1.0   3.15
END
