TITL LFSO-Li2Fe3S3O-201026-063440-cc9556 0.0051 185.981463 -4.33594319E+003 12.0000 12.1854 9 (R3) n - 1
REM
REM Run started: Mon, 26 Oct 2020 07:03:26 +0000 in /lustre/scratch/uccabz1/launch_tmp/launcher_2020-10-26-06-34-38-813202
REM CASTEP 20.1 from code version af48c487+ pr-geom-scf-spinfix Tue Jun 2 15:39:59 2020 +0100
REM Functional Perdew Burke Ernzerhof Relativity Koelling-Harmon Dispersion off
REM Cut-off 340.0000 eV Grid scale 1.7500 Gmax 16.5316 1/A FBSC none
REM MP grid 3 3 3 Offset 0.000 0.000 0.000 No. kpts 6 Spacing 0.07
REM Total runtime: 2229.9 s
REM Overall efficiency: 74.3333 %
REM
REM
REM
REM compiler GCC version 4.9.2
REM options -cpp -iprefix /lustre/shared/ucl/apps/gcc/4.9.2/bin/../lib/gcc/x86_64-unknown-linux-gnu/4.9.2/ -mtune=corei7 -march=x86-64 -g -Og
REM COMMAND_LINE
REM seed 41287114 -1604685987 -68772917 -85285625 -2110689502 -1639223331 285150664 1951903463 92635247 -399797113 -1843027478 -343088251
REM
REM S 3|1.8|5|6|7|30:31:32(qc=5)
REM O 2|1.5|12|13|15|20:21(qc=5)
REM Li 1|1.3|8|9|10|10U:20(qc=5)
REM Fe 3|2.2|2.0|1.0|8|9|10|40:41:32(qc=5)
REM Fe d:4.0 
REM
CELL 1.54180    5.71239    5.71239    5.71239   87.74471   87.74471   87.74471
LATT -1
SFAC Li O  S  Fe 
Li     1  0.4879740000000  0.4879740000000  0.4879740000000 1.0  -0.03
Li     1  0.1476820000000  0.1476820000000  0.1476820000000 1.0  -0.12
O      2 -0.0468710000000 -0.0468710000000 -0.0468710000000 1.0   0.14
S      3  0.3500250000000  0.3690990000000 -0.1269430000000 1.0   0.07
S      3  0.3690990000000 -0.1269430000000  0.3500250000000 1.0   0.07
S      3 -0.1269430000000  0.3500250000000  0.3690990000000 1.0   0.07
Fe     4  0.1285010000000  0.0619260000000 -0.3445870000000 1.0   3.94
Fe     4  0.0619260000000 -0.3445870000000  0.1285010000000 1.0   3.94
Fe     4 -0.3445870000000  0.1285010000000  0.0619260000000 1.0   3.94
END
