TITL LFSO-Li3FeS2O-201025-055436-87444d 0.1439 468.938071 -7.51717866E+003 12.1051 12.5401 21 (I222) n - 1
REM
REM Run started: Mon, 26 Oct 2020 19:07:21 +0000 in /lustre/scratch/uccabz1/launch_tmp/launcher_2020-10-26-18-29-31-863585
REM CASTEP 20.1 from code version af48c487+ pr-geom-scf-spinfix Tue Jun 2 15:39:59 2020 +0100
REM Functional Perdew Burke Ernzerhof Relativity Koelling-Harmon Dispersion off
REM Cut-off 340.0000 eV Grid scale 1.7500 Gmax 16.5316 1/A FBSC none
REM MP grid 3 3 2 Offset 0.000 0.000 0.000 No. kpts 8 Spacing 0.07
REM Total runtime: 117215 s
REM Overall efficiency: 91.9231 %
REM
REM
REM
REM compiler GCC version 4.9.2
REM options -cpp -iprefix /scratch/UCL/applications/gcc/4.9.2/bin/../lib/gcc/x86_64-unknown-linux-gnu/4.9.2/ -mtune=corei7 -march=x86-64 -g -O2
REM COMMAND_LINE
REM seed -1929578095 127931053 1018350762 1302198553 727956605 298634737 -1478718658 301549145 -995467620 -801333522 -1748315148 -593829117
REM
REM S 3|1.8|5|6|7|30:31:32(qc=5)
REM O 2|1.5|12|13|15|20:21(qc=5)
REM Li 1|1.3|8|9|10|10U:20(qc=5)
REM Fe 3|2.2|2.0|1.0|8|9|10|40:41:32(qc=5)
REM Fe d:4.0 
REM
CELL 1.54180    7.81547    6.63015   10.39992  108.58791  112.07044   90.00000
LATT -1
SFAC Li O  S  Fe 
Li     1 -0.0629790000000 -0.0091060000000 -0.4320160000000 1.0  -0.02
Li     1 -0.3690370000000 -0.4229100000000 -0.4320160000000 1.0  -0.02
Li     1  0.0629790000000  0.4229100000000  0.4320160000000 1.0  -0.02
Li     1  0.3690370000000  0.0091060000000  0.4320160000000 1.0  -0.02
Li     1  0.3815510000000  0.1305930000000  0.1993530000000 1.0  -0.03
Li     1 -0.1821980000000  0.0687600000000  0.1993530000000 1.0  -0.03
Li     1 -0.3815510000000 -0.0687600000000 -0.1993530000000 1.0  -0.03
Li     1  0.1821980000000 -0.1305930000000 -0.1993530000000 1.0  -0.03
Li     1  0.0000000000000  0.0000000000000  0.0000000000000 1.0  -0.10
O      2 -0.3259430000000  0.0000000000000  0.0000000000000 1.0   0.08
O      2  0.3259430000000  0.0000000000000  0.0000000000000 1.0   0.08
O      2 -0.5000000000000  0.5000000000000  0.0000000000000 1.0   0.02
S      3  0.2936610000000 -0.0253500000000 -0.3702720000000 1.0   0.04
S      3  0.3360680000000 -0.3449220000000 -0.3702720000000 1.0   0.04
S      3 -0.2936610000000  0.3449220000000  0.3702720000000 1.0   0.04
S      3 -0.3360680000000  0.0253500000000  0.3702720000000 1.0   0.04
S      3  0.1349310000000  0.1349310000000  0.2698620000000 1.0   0.09
S      3 -0.1349310000000 -0.1349310000000 -0.2698620000000 1.0   0.09
Fe     4  0.5000000000000 -0.2200460000000  0.0000000000000 1.0   3.74
Fe     4 -0.5000000000000  0.2200460000000  0.0000000000000 1.0   3.74
Fe     4  0.0000000000000 -0.5000000000000  0.0000000000000 1.0   4.40
END
