TITL LFSO-Li2Fe4S4O-201025-031457-79144d 0.0247 642.662370 -1.10016877E+004 0.495441E-06 30.2369 22 (Pmn21) n - 1
REM
REM Run started: Sun, 25 Oct 2020 12:04:18 +0000 in /scratch/scratch/uccabz1/launch_tmp/launcher_2020-10-25-03-14-54-944839
REM CASTEP 19.11| from code version Version unavailable
REM Functional Perdew Burke Ernzerhof Relativity Koelling-Harmon Dispersion off
REM Cut-off 340.0000 eV Grid scale 1.7500 Gmax 16.5316 1/A FBSC none
REM MP grid 3 2 2 Offset 0.000 0.000 0.000 No. kpts 2 Spacing 0.07
REM Total runtime: 32709.4 s
REM Overall efficiency: 75.5 %
REM
REM
REM
REM compiler GCC version 4.9.2
REM options -cpp -iprefix /scratch/UCL/applications/gcc/4.9.2/bin/../lib/gcc/x86_64-unknown-linux-gnu/4.9.2/ -mtune=corei7 -march=x86-64 -g -O2
REM COMMAND_LINE
REM seed -657391848 1700804023 -2016821508 52812207 1574794198 545713019 -1519924661 -2078172467 -1625761034 1659243870 629315562 2003407373
REM
REM S 3|1.8|5|6|7|30:31:32(qc=5)
REM O 2|1.5|12|13|15|20:21(qc=5)
REM Li 1|1.3|8|9|10|10U:20(qc=5)
REM Fe 3|2.2|2.0|1.0|8|9|10|40:41:32(qc=5)
REM Fe d:4.0 
REM
CELL 1.54180    6.84183   11.71192    8.02015   90.00000   90.00000   90.00000
LATT -1
SFAC Li O  S  Fe 
Li     1  0.3855600000000  0.1330520000000  0.3662300000000 1.0  -0.02
Li     1 -0.1144400000000  0.3669480000000 -0.3662300000000 1.0  -0.02
Li     1 -0.1144400000000 -0.3669480000000 -0.3662300000000 1.0  -0.02
Li     1  0.3855600000000 -0.1330520000000  0.3662300000000 1.0  -0.02
O      2  0.3765830000000 -0.0000000000000  0.5415500000000 1.0   0.16
O      2 -0.1234170000000  0.5000000000000 -0.5415500000000 1.0   0.16
S      3 -0.3799210000000  0.2479950000000 -0.2177870000000 1.0  -0.04
S      3  0.1200790000000  0.2520050000000  0.2177870000000 1.0  -0.04
S      3  0.1200790000000 -0.2520050000000  0.2177870000000 1.0  -0.04
S      3 -0.3799210000000 -0.2479950000000 -0.2177870000000 1.0  -0.04
S      3  0.1174740000000  0.2475760000000 -0.2147040000000 1.0  -0.05
S      3 -0.3825260000000  0.2524240000000  0.2147040000000 1.0  -0.05
S      3 -0.3825260000000 -0.2524240000000  0.2147040000000 1.0  -0.05
S      3  0.1174740000000 -0.2475760000000 -0.2147040000000 1.0  -0.05
Fe     4 -0.1335090000000 -0.3732680000000  0.3023480000000 1.0   3.69
Fe     4  0.3664910000000 -0.1267320000000 -0.3023480000000 1.0   3.69
Fe     4  0.3664910000000  0.1267320000000 -0.3023480000000 1.0   3.69
Fe     4 -0.1335090000000  0.3732680000000  0.3023480000000 1.0   3.69
Fe     4 -0.1349220000000  0.2323860000000 -0.0004300000000 1.0  -3.66
Fe     4  0.3650780000000  0.2676140000000  0.0004300000000 1.0  -3.66
Fe     4  0.3650780000000 -0.2676140000000  0.0004300000000 1.0  -3.66
Fe     4 -0.1349220000000 -0.2323860000000 -0.0004300000000 1.0  -3.66
END
