TITL LFSO-Li2FeSO-201025-105152-23533e 0.0035 78.894101 -2.00097071E+003 3.99385 4.04837 5 (P-1) n - 1
REM
REM Run started: Sun, 25 Oct 2020 11:06:38 +0000 in /lustre/scratch/uccabz1/launch_tmp/launcher_2020-10-25-10-51-50-417892
REM CASTEP 20.1 from code version af48c487+ pr-geom-scf-spinfix Tue Jun 2 15:39:59 2020 +0100
REM Functional Perdew Burke Ernzerhof Relativity Koelling-Harmon Dispersion off
REM Cut-off 340.0000 eV Grid scale 1.7500 Gmax 16.5316 1/A FBSC none
REM MP grid 5 4 5 Offset 0.000 0.000 0.000 No. kpts 50 Spacing 0.07
REM Total runtime: 1112.6 s
REM Overall efficiency: 76.5 %
REM
REM
REM
REM compiler GCC version 4.9.2
REM options -cpp -iprefix /lustre/shared/ucl/apps/gcc/4.9.2/bin/../lib/gcc/x86_64-unknown-linux-gnu/4.9.2/ -mtune=corei7 -march=x86-64 -g -Og
REM COMMAND_LINE
REM seed 703392094 -270538326 -2035132937 831939503 -2003895785 -817030695 -1451351956 1082377410 -1629507199 1073270815 2135699315 2054508695
REM
REM S 3|1.8|5|6|7|30:31:32(qc=5)
REM O 2|1.5|12|13|15|20:21(qc=5)
REM Li 1|1.3|8|9|10|10U:20(qc=5)
REM Fe 3|2.2|2.0|1.0|8|9|10|40:41:32(qc=5)
REM Fe d:4.0 
REM
CELL 1.54180    5.37670    5.65564    4.46505   84.34062   66.55465  131.67865
LATT -1
SFAC Li O  S  Fe 
Li     1  0.0000000000000  0.0000000000000  0.0000000000000 1.0  -0.05
Li     1  0.5000000000000 -0.5000000000000  0.5000000000000 1.0  -0.06
O      2 -0.5000000000000  0.0000000000000  0.5000000000000 1.0   0.17
S      3  0.5000000000000 -0.5000000000000  0.0000000000000 1.0   0.09
Fe     4  0.0000000000000  0.5000000000000  0.0000000000000 1.0   3.85
END
