TITL LFSO-Li2Fe3S2O2-201024-092004-4ddb63 0.0024 283.557758 -8.94012526E+003 24.0000 24.1620 18 (Ccc2) n - 1
REM
REM Run started: Sat, 24 Oct 2020 16:25:06 +0100 in /lustre/scratch/uccabz1/launch_tmp/launcher_2020-10-24-08-20-02-839205
REM CASTEP 20.1 from code version af48c487+ pr-geom-scf-spinfix Tue Jun 2 15:39:59 2020 +0100
REM Functional Perdew Burke Ernzerhof Relativity Koelling-Harmon Dispersion off
REM Cut-off 340.0000 eV Grid scale 1.7500 Gmax 16.5316 1/A FBSC none
REM MP grid 3 3 3 Offset 0.000 0.000 0.000 No. kpts 8 Spacing 0.07
REM Total runtime: 26863.8 s
REM Overall efficiency: 76.0833 %
REM
REM
REM
REM compiler GCC version 4.9.2
REM options -cpp -iprefix /lustre/shared/ucl/apps/gcc/4.9.2/bin/../lib/gcc/x86_64-unknown-linux-gnu/4.9.2/ -mtune=corei7 -march=x86-64 -g -Og
REM COMMAND_LINE
REM seed -1946037522 2062663226 595809993 -169885080 -158782480 1494077472 224834125 -412194788 -865602090 1793112541 -1788281115 -1284762815
REM
REM S 3|1.8|5|6|7|30:31:32(qc=5)
REM O 2|1.5|12|13|15|20:21(qc=5)
REM Li 1|1.3|8|9|10|10U:20(qc=5)
REM Fe 3|2.2|2.0|1.0|8|9|10|40:41:32(qc=5)
REM Fe d:4.0 
REM
CELL 1.54180    7.72786    7.29916    5.92533   90.00000   90.00000  121.96270
LATT -1
SFAC Li O  S  Fe 
Li     1 -0.3347100000000  0.4252630000000  0.2644360000000 1.0  -0.02
Li     1  0.3347100000000 -0.4252630000000  0.2644360000000 1.0  -0.02
Li     1 -0.2400280000000  0.4252630000000 -0.2355640000000 1.0  -0.02
Li     1  0.2400280000000 -0.4252630000000 -0.2355640000000 1.0  -0.02
O      2 -0.5221500000000 -0.2131760000000 -0.0698610000000 1.0   0.18
O      2  0.5221500000000  0.2131760000000 -0.0698610000000 1.0   0.18
O      2  0.3089740000000 -0.2131760000000  0.4301390000000 1.0   0.18
O      2 -0.3089730000000  0.2131760000000  0.4301390000000 1.0   0.18
S      3 -0.2575420000000 -0.2466710000000 -0.5294250000000 1.0   0.12
S      3  0.2575430000000  0.2466710000000 -0.5294250000000 1.0   0.12
S      3  0.0108720000000 -0.2466710000000 -0.0294250000000 1.0   0.12
S      3 -0.0108720000000  0.2466710000000 -0.0294250000000 1.0   0.12
Fe     4  0.0872660000000 -0.1536880000000  0.3839250000000 1.0   3.81
Fe     4 -0.0872650000000  0.1536880000000  0.3839250000000 1.0   3.81
Fe     4 -0.2409530000000 -0.1536880000000 -0.1160750000000 1.0   3.81
Fe     4  0.2409540000000  0.1536880000000 -0.1160750000000 1.0   3.81
Fe     4  0.5000000000000  0.0000000000000  0.1723250000000 1.0   3.82
Fe     4  0.5000000000000  0.0000000000000 -0.3276750000000 1.0   3.82
END
