TITL LFSO-Li6FeS3O-201027-161150-39b300 0.1617 814.582214 -6.81848723E+003 6.00000 6.74030 22 (Cm) n - 1
REM
REM Run started: Wed, 28 Oct 2020 09:06:35 +0000 in /scratch/scratch/uccabz1/launch_tmp/launcher_2020-10-27-16-11-48-941274
REM CASTEP 19.11| from code version Version unavailable
REM Functional Perdew Burke Ernzerhof Relativity Koelling-Harmon Dispersion off
REM Cut-off 340.0000 eV Grid scale 1.7500 Gmax 16.5316 1/A FBSC none
REM MP grid 2 3 3 Offset 0.000 0.000 0.000 No. kpts 9 Spacing 0.07
REM Total runtime: 72665 s
REM Overall efficiency: 73.3333 %
REM
REM
REM
REM compiler GCC version 4.9.2
REM options -cpp -iprefix /scratch/UCL/applications/gcc/4.9.2/bin/../lib/gcc/x86_64-unknown-linux-gnu/4.9.2/ -mtune=corei7 -march=x86-64 -g -O2
REM COMMAND_LINE
REM seed 1981843160 -1166155151 -1103074950 502065411 461907124 -1712228327 276034664 736150004 562690706 1663482321 -1192523898 -678911844
REM
REM S 3|1.8|5|6|7|30:31:32(qc=5)
REM O 2|1.5|12|13|15|20:21(qc=5)
REM Li 1|1.3|8|9|10|10U:20(qc=5)
REM Fe 3|2.2|2.0|1.0|8|9|10|40:41:32(qc=5)
REM Fe d:4.0 
REM
CELL 1.54180   21.50384    7.48890   12.74943  111.25299  147.49294   90.00000
LATT -1
SFAC Li O  S  Fe 
Li     1  0.3878960000000 -0.5199700000000  0.2329320000000 1.0  -0.01
Li     1 -0.1549640000000 -0.5199700000000  0.2329320000000 1.0  -0.01
Li     1  0.3037480000000  0.0012910000000 -0.1137470000000 1.0  -0.01
Li     1 -0.4174950000000  0.0012910000000 -0.1137470000000 1.0  -0.01
Li     1 -0.4236430000000  0.2141790000000 -0.2649110000000 1.0  -0.07
Li     1  0.1587320000000  0.2141790000000 -0.2649110000000 1.0  -0.07
Li     1 -0.4103640000000 -0.1091780000000 -0.3199940000000 1.0  -0.01
Li     1  0.0903710000000 -0.1091780000000 -0.3199940000000 1.0  -0.01
Li     1  0.0430590000000 -0.2826070000000 -0.6529160000000 1.0   0.01
Li     1 -0.6959750000000 -0.2826070000000 -0.6529160000000 1.0   0.01
Li     1 -0.1441440000000  0.1479430000000  0.1927400000000 1.0  -0.05
Li     1  0.3368840000000  0.1479430000000  0.1927400000000 1.0  -0.05
O      2 -0.3043570000000  0.1603730000000 -0.0383740000000 1.0  -0.00
O      2  0.2659830000000  0.1603730000000 -0.0383740000000 1.0  -0.00
S      3  0.3796020000000  0.0112680000000  0.6538030000000 1.0   0.00
S      3  0.2742020000000  0.0112680000000  0.6538030000000 1.0   0.00
S      3  0.3960450000000 -0.1505430000000  0.3134840000000 1.0  -0.01
S      3 -0.0825610000000 -0.1505430000000  0.3134840000000 1.0  -0.01
S      3 -0.5451770000000  0.5391620000000 -0.4735930000000 1.0  -0.01
S      3  0.0715840000000  0.5391620000000 -0.4735930000000 1.0  -0.01
Fe     4 -0.3174680000000 -0.3251960000000 -0.0848350000000 1.0   3.15
Fe     4  0.2326330000000 -0.3251960000000 -0.0848350000000 1.0   3.15
END
