TITL LFSO-Li5FeS2O2-201026-230658-5fc749 -0.4179 315.514435 -6.69150546E+003 6.02317 9.51086 20 (Pc) n - 1
REM
REM Run started: Tue, 27 Oct 2020 14:03:02 +0000 in /lustre/scratch/uccabz1/launch_tmp/launcher_2020-10-26-23-06-55-746675
REM CASTEP 20.1 from code version af48c487+ pr-geom-scf-spinfix Tue Jun 2 15:39:59 2020 +0100
REM Functional Perdew Burke Ernzerhof Relativity Koelling-Harmon Dispersion off
REM Cut-off 340.0000 eV Grid scale 1.7500 Gmax 16.5316 1/A FBSC none
REM MP grid 5 3 2 Offset 0.000 0.000 0.000 No. kpts 8 Spacing 0.07
REM Total runtime: 36594.2 s
REM Overall efficiency: 94.75 %
REM
REM
REM
REM compiler GCC version 4.9.2
REM options -cpp -iprefix /lustre/shared/ucl/apps/gcc/4.9.2/bin/../lib/gcc/x86_64-unknown-linux-gnu/4.9.2/ -mtune=corei7 -march=x86-64 -g -Og
REM COMMAND_LINE
REM seed 1731966353 442474097 734389885 1430615115 1515093210 1810984024 22116122 -675505227 -1731181686 826811065 975448472 1589535043
REM
REM S 3|1.8|5|6|7|30:31:32(qc=5)
REM O 2|1.5|12|13|15|20:21(qc=5)
REM Li 1|1.3|8|9|10|10U:20(qc=5)
REM Fe 3|2.2|2.0|1.0|8|9|10|40:41:32(qc=5)
REM Fe d:4.0 
REM
CELL 1.54180    7.47623   11.16780    8.36850   90.00000   90.00000  153.15581
LATT -1
SFAC Li O  S  Fe 
Li     1 -0.2883590000000 -0.5291050000000  0.3487210000000 1.0  -0.05
Li     1 -0.7883590000000 -0.5291050000000 -0.3487210000000 1.0  -0.05
Li     1  0.5095020000000  0.0872640000000  0.2627410000000 1.0  -0.03
Li     1  0.0095020000000  0.0872640000000 -0.2627410000000 1.0  -0.03
Li     1  0.7233500000000  0.5568040000000 -0.2330020000000 1.0   0.01
Li     1  0.2233500000000  0.5568040000000  0.2330020000000 1.0   0.01
Li     1 -0.1749060000000  0.1579390000000 -0.0852510000000 1.0   0.04
Li     1  0.3250940000000  0.1579390000000  0.0852510000000 1.0   0.04
Li     1 -0.4028000000000 -0.3640380000000 -0.0456110000000 1.0  -0.06
Li     1  0.0972000000000 -0.3640380000000  0.0456110000000 1.0  -0.06
O      2  0.2628670000000  0.3807780000000 -0.2045070000000 1.0  -0.01
O      2  0.7628670000000  0.3807780000000  0.2045070000000 1.0  -0.01
O      2 -0.3707450000000 -0.1835640000000 -0.4289760000000 1.0   0.07
O      2  0.1292550000000 -0.1835640000000  0.4289760000000 1.0   0.07
S      3 -0.2581040000000 -0.0822800000000  0.0699550000000 1.0  -0.34
S      3  0.2418960000000 -0.0822800000000 -0.0699550000000 1.0  -0.34
S      3  0.5803070000000  0.2815450000000 -0.3336590000000 1.0  -0.44
S      3  0.0803070000000  0.2815450000000  0.3336590000000 1.0  -0.44
Fe     4 -0.0228510000000 -0.1214540000000  0.5161060000000 1.0   3.83
Fe     4 -0.5228510000000 -0.1214540000000 -0.5161060000000 1.0   3.83
END
