TITL LFSO-Li6FeS3O-201027-185746-8e5c9f -0.0686 201.618896 -3.41126444E+003 4.00000 4.07259 11 (Cm) n - 1
REM
REM Run started: Tue, 27 Oct 2020 21:00:17 +0000 in /scratch/scratch/uccabz1/launch_tmp/launcher_2020-10-27-18-57-45-319510
REM CASTEP 19.11| from code version Version unavailable
REM Functional Perdew Burke Ernzerhof Relativity Koelling-Harmon Dispersion off
REM Cut-off 340.0000 eV Grid scale 1.7500 Gmax 16.5316 1/A FBSC none
REM MP grid 5 5 5 Offset 0.000 0.000 0.000 No. kpts 39 Spacing 0.07
REM Total runtime: 9486.7 s
REM Overall efficiency: 69 %
REM
REM
REM
REM compiler GCC version 4.9.2
REM options -cpp -iprefix /scratch/UCL/applications/gcc/4.9.2/bin/../lib/gcc/x86_64-unknown-linux-gnu/4.9.2/ -mtune=corei7 -march=x86-64 -g -O2
REM COMMAND_LINE
REM seed 1206275991 554904358 -1557280880 229994118 83462653 -1519657974 -716633461 614387756 -27708084 926594548 -1756977497 2030651395
REM
REM S 3|1.8|5|6|7|30:31:32(qc=5)
REM O 2|1.5|12|13|15|20:21(qc=5)
REM Li 1|1.3|8|9|10|10U:20(qc=5)
REM Fe 3|2.2|2.0|1.0|8|9|10|40:41:32(qc=5)
REM Fe d:4.0 
REM
CELL 1.54180    8.29252    8.29252    7.67495  118.01555  118.01555  117.30301
LATT -1
SFAC Li O  S  Fe 
Li     1 -0.0657400000000  0.1782280000000  0.1719690000000 1.0  -0.03
Li     1  0.1782280000000 -0.0657400000000  0.1719690000000 1.0  -0.03
Li     1  0.3128360000000 -0.2270250000000 -0.0487120000000 1.0   0.01
Li     1 -0.2270250000000  0.3128360000000 -0.0487120000000 1.0   0.01
Li     1  0.1417400000000 -0.0671470000000 -0.3276380000000 1.0  -0.02
Li     1 -0.0671470000000  0.1417400000000 -0.3276380000000 1.0  -0.02
O      2  0.0526980000000  0.0526980000000  0.0673280000000 1.0   0.13
S      3  0.3239730000000 -0.2218270000000  0.6441990000000 1.0   0.01
S      3 -0.2218270000000  0.3239730000000  0.6441990000000 1.0   0.01
S      3 -0.4640440000000 -0.4640440000000  0.1467750000000 1.0   0.08
Fe     4  0.5483660000000  0.5483660000000  0.4692020000000 1.0   3.86
END
