TITL LFSO-Li5FeSO3-201026-082403-e79c11 0.0351 131.268948 -3.48008595E+003 5.00000 5.04296 10 (Cm) n - 1
REM
REM Run started: Mon, 26 Oct 2020 09:56:15 +0000 in /lustre/scratch/uccabz1/launch_tmp/launcher_2020-10-26-08-24-01-839267
REM CASTEP 20.1 from code version af48c487+ pr-geom-scf-spinfix Tue Jun 2 15:39:59 2020 +0100
REM Functional Perdew Burke Ernzerhof Relativity Koelling-Harmon Dispersion off
REM Cut-off 340.0000 eV Grid scale 1.7500 Gmax 16.5316 1/A FBSC none
REM MP grid 3 3 5 Offset 0.000 0.000 0.000 No. kpts 23 Spacing 0.07
REM Total runtime: 5670.71 s
REM Overall efficiency: 84 %
REM
REM
REM
REM compiler GCC version 4.9.2
REM options -cpp -iprefix /lustre/shared/ucl/apps/gcc/4.9.2/bin/../lib/gcc/x86_64-unknown-linux-gnu/4.9.2/ -mtune=corei7 -march=x86-64 -g -Og
REM COMMAND_LINE
REM seed 1626728961 -87684028 1763155746 -1298872325 1156019313 232972915 389981542 2090003587 524034691 1697835483 -406668636 -859232195
REM
REM S 3|1.8|5|6|7|30:31:32(qc=5)
REM O 2|1.5|12|13|15|20:21(qc=5)
REM Li 1|1.3|8|9|10|10U:20(qc=5)
REM Fe 3|2.2|2.0|1.0|8|9|10|40:41:32(qc=5)
REM Fe d:4.0 
REM
CELL 1.54180    5.67500    7.19108    5.15474  134.22841  110.62418   90.00001
LATT -1
SFAC Li O  S  Fe 
Li     1 -0.4836650000000  0.6139730000000  0.6186810000000 1.0   0.01
Li     1 -0.4836650000000  0.0047080000000  0.6186810000000 1.0   0.01
Li     1  0.0347840000000  0.1606270000000 -0.1431140000000 1.0  -0.07
Li     1  0.0347840000000 -0.3037420000000 -0.1431140000000 1.0  -0.07
Li     1  0.0191550000000  0.1601710000000 -0.6796580000000 1.0   0.08
O      2  0.1438930000000 -0.0618190000000 -0.5691870000000 1.0   0.28
O      2  0.1438930000000 -0.5073680000000 -0.5691870000000 1.0   0.28
O      2 -0.2022160000000 -0.1570750000000 -0.3141490000000 1.0   0.23
S      3 -0.3159620000000  0.2885490000000 -0.4229020000000 1.0   0.22
Fe     4 -0.0644910000000 -0.3520460000000  0.2959080000000 1.0   4.04
END
