TITL LFSO-Li6FeSO3-201028-050051-6232b0 -0.0112 199.741743 -3.67885577E+003 4.00000 4.14948 11 (P-6) n - 1
REM
REM Run started: Wed, 28 Oct 2020 05:44:52 +0000 in /scratch/scratch/uccabz1/launch_tmp/launcher_2020-10-28-05-00-50-074641
REM CASTEP 19.11| from code version Version unavailable
REM Functional Perdew Burke Ernzerhof Relativity Koelling-Harmon Dispersion off
REM Cut-off 340.0000 eV Grid scale 1.7500 Gmax 16.5316 1/A FBSC none
REM MP grid 4 3 3 Offset 0.000 0.000 0.000 No. kpts 10 Spacing 0.07
REM Total runtime: 2695.99 s
REM Overall efficiency: 71.625 %
REM
REM
REM
REM compiler GCC version 4.9.2
REM options -cpp -iprefix /scratch/UCL/applications/gcc/4.9.2/bin/../lib/gcc/x86_64-unknown-linux-gnu/4.9.2/ -mtune=corei7 -march=x86-64 -g -O2
REM COMMAND_LINE
REM seed 325022516 638229323 1475578970 -1282419877 -713360729 -50956414 655030361 389143552 -1648831493 383639055 568085114 1624971438
REM
REM S 3|1.8|5|6|7|30:31:32(qc=5)
REM O 2|1.5|12|13|15|20:21(qc=5)
REM Li 1|1.3|8|9|10|10U:20(qc=5)
REM Fe 3|2.2|2.0|1.0|8|9|10|40:41:32(qc=5)
REM Fe d:4.0 
REM
CELL 1.54180    3.68123    7.91540    7.91540  120.00000   90.00000   90.00000
LATT -1
SFAC Li O  S  Fe 
Li     1  0.4371410000000 -0.3587070000000 -0.0442060000000 1.0  -0.03
Li     1  0.4371410000000  0.0442060000000 -0.3145010000000 1.0  -0.03
Li     1  0.4371410000000  0.3145010000000  0.3587070000000 1.0  -0.03
Li     1 -0.0704060000000  0.1709710000000 -0.0498300000000 1.0   0.01
Li     1 -0.0704060000000  0.0498300000000  0.2208000000000 1.0   0.01
Li     1 -0.0704060000000 -0.2208000000000 -0.1709710000000 1.0   0.01
O      2 -0.0569100000000 -0.4110920000000 -0.1044230000000 1.0   0.11
O      2 -0.0569100000000  0.1044230000000 -0.3066690000000 1.0   0.11
O      2 -0.0569100000000  0.3066690000000  0.4110920000000 1.0   0.11
S      3  0.4406730000000 -0.0000000000000  0.0000000000000 1.0   0.00
Fe     4 -0.0707880000000  0.3333330000000 -0.3333330000000 1.0   3.72
END
