TITL LFSO-Li6FeSO3-201028-025842-b3bdfb -0.0102 282.422997 -7.35849969E+003 8.00000 8.20232 22 (Cc) n - 1
REM
REM Run started: Wed, 28 Oct 2020 06:56:11 +0000 in /scratch/scratch/uccabz1/launch_tmp/launcher_2020-10-28-02-58-40-974335
REM CASTEP 19.11| from code version Version unavailable
REM Functional Perdew Burke Ernzerhof Relativity Koelling-Harmon Dispersion off
REM Cut-off 340.0000 eV Grid scale 1.7500 Gmax 16.5316 1/A FBSC none
REM MP grid 3 3 2 Offset 0.000 0.000 0.000 No. kpts 8 Spacing 0.07
REM Total runtime: 15658.6 s
REM Overall efficiency: 97.125 %
REM
REM
REM
REM compiler GCC version 4.9.2
REM options -cpp -iprefix /scratch/UCL/applications/gcc/4.9.2/bin/../lib/gcc/x86_64-unknown-linux-gnu/4.9.2/ -mtune=corei7 -march=x86-64 -g -O2
REM COMMAND_LINE
REM seed -832212695 1531697 -1038642712 295139628 -574636719 -118348983 1406054514 669265798 700919254 553203936 -390751923 1795198634
REM
REM S 3|1.8|5|6|7|30:31:32(qc=5)
REM O 2|1.5|12|13|15|20:21(qc=5)
REM Li 1|1.3|8|9|10|10U:20(qc=5)
REM Fe 3|2.2|2.0|1.0|8|9|10|40:41:32(qc=5)
REM Fe d:4.0 
REM
CELL 1.54180    5.75571    6.08624    9.07566   83.62394   71.51265   69.49913
LATT -1
SFAC Li O  S  Fe 
Li     1  0.1393260000000  0.2980860000000 -0.0316210000000 1.0  -0.07
Li     1  0.6077050000000 -0.2019140000000  0.0316210000000 1.0  -0.07
Li     1 -0.4205200000000 -0.5863770000000  0.1980930000000 1.0   0.01
Li     1  0.2775730000000 -0.0863770000000 -0.1980930000000 1.0   0.01
Li     1  0.3167730000000  0.4468760000000 -0.4937690000000 1.0  -0.01
Li     1  0.3230040000000 -0.0531240000000  0.4937690000000 1.0  -0.01
Li     1 -0.2849320000000  0.0919060000000 -0.1147380000000 1.0   0.00
Li     1  0.1003300000000  0.5919060000000  0.1147380000000 1.0   0.00
Li     1  0.5316270000000 -0.4793640000000 -0.1530240000000 1.0  -0.01
Li     1 -0.1213970000000  0.0206360000000  0.1530240000000 1.0  -0.01
Li     1 -0.1921330000000  0.1693390000000  0.3841340000000 1.0  -0.02
Li     1 -0.3079990000000 -0.3306610000000 -0.3841340000000 1.0  -0.02
O      2  0.3571330000000 -0.3306800000000 -0.3531210000000 1.0   0.09
O      2 -0.4959880000000  0.1693200000000  0.3531210000000 1.0   0.09
O      2 -0.0603360000000  0.3157520000000  0.1781420000000 1.0   0.08
O      2 -0.3821940000000 -0.1842480000000 -0.1781420000000 1.0   0.08
O      2 -0.0409670000000 -0.1665420000000 -0.0214170000000 1.0   0.08
O      2 -0.5623840000000  0.3334580000000  0.0214170000000 1.0   0.08
S      3  0.2099320000000 -0.2081720000000  0.2969260000000 1.0   0.06
S      3  0.0068580000000  0.2918280000000 -0.2969260000000 1.0   0.06
Fe     4  0.2887590000000  0.1679640000000  0.2198310000000 1.0   3.79
Fe     4  0.0085890000000  0.6679640000000 -0.2198310000000 1.0   3.79
END
