TITL LFSO-Li2Fe4S4O-201025-023421-c27c99 -0.0024 424.478861 -1.09969169E+004 27.9988 29.4521 22 (I41) n - 1
REM
REM Run started: Sun, 25 Oct 2020 08:42:07 +0000 in /scratch/scratch/uccabz1/launch_tmp/launcher_2020-10-25-02-34-18-934193
REM CASTEP 19.11| from code version Version unavailable
REM Functional Perdew Burke Ernzerhof Relativity Koelling-Harmon Dispersion off
REM Cut-off 340.0000 eV Grid scale 1.7500 Gmax 16.5316 1/A FBSC none
REM MP grid 3 3 3 Offset 0.000 0.000 0.000 No. kpts 6 Spacing 0.07
REM Total runtime: 22295.6 s
REM Overall efficiency: 76.1111 %
REM
REM
REM
REM compiler GCC version 4.9.2
REM options -cpp -iprefix /scratch/UCL/applications/gcc/4.9.2/bin/../lib/gcc/x86_64-unknown-linux-gnu/4.9.2/ -mtune=corei7 -march=x86-64 -g -O2
REM COMMAND_LINE
REM seed -200218858 987195713 -503067817 -108166052 -158156508 -1657996366 -2023943401 -1894139665 185370875 -1740431098 -148018240 163773244
REM
REM S 3|1.8|5|6|7|30:31:32(qc=5)
REM O 2|1.5|12|13|15|20:21(qc=5)
REM Li 1|1.3|8|9|10|10U:20(qc=5)
REM Fe 3|2.2|2.0|1.0|8|9|10|40:41:32(qc=5)
REM Fe d:4.0 
REM
CELL 1.54180    8.00145    8.00145    8.71605  117.32300  117.32300   90.00000
LATT -1
SFAC Li O  S  Fe 
Li     1 -0.0340260000000 -0.2852860000000 -0.4558950000000 1.0  -0.03
Li     1 -0.4218690000000 -0.1706080000000 -0.4558950000000 1.0  -0.03
Li     1 -0.5352860000000 -0.1718690000000  0.0441050000000 1.0  -0.03
Li     1 -0.4206080000000  0.2159740000000  0.0441050000000 1.0  -0.03
O      2 -0.1615700000000 -0.1615700000000 -0.3231410000000 1.0  -0.21
O      2 -0.4115700000000  0.0884300000000  0.1768590000000 1.0  -0.21
S      3 -0.0550870000000  0.1149400000000 -0.2801480000000 1.0   0.12
S      3 -0.2250610000000 -0.3950870000000 -0.2801480000000 1.0   0.12
S      3 -0.1350600000000  0.0249390000000  0.2198520000000 1.0   0.12
S      3  0.3549130000000  0.1949130000000  0.2198520000000 1.0   0.12
S      3  0.4310150000000  0.1016760000000 -0.3317150000000 1.0   0.09
S      3  0.2372700000000 -0.4333910000000 -0.3317150000000 1.0   0.09
S      3 -0.1483240000000  0.4872700000000  0.1682850000000 1.0   0.09
S      3  0.3166090000000 -0.3189850000000  0.1682850000000 1.0   0.09
Fe     4  0.0611740000000  0.3096750000000  0.2966440000000 1.0   3.40
Fe     4  0.2354710000000 -0.0130300000000  0.2966440000000 1.0   3.40
Fe     4  0.0596750000000 -0.5145290000000 -0.2033560000000 1.0   3.40
Fe     4 -0.2630300000000  0.3111740000000 -0.2033560000000 1.0   3.40
Fe     4  0.4474940000000  0.4365290000000  0.5499750000000 1.0   3.52
Fe     4  0.1024810000000  0.1134450000000  0.5499750000000 1.0   3.52
Fe     4  0.1865290000000  0.3524810000000  0.0499750000000 1.0   3.52
Fe     4 -0.1365550000000 -0.3025060000000  0.0499750000000 1.0   3.52
END
