TITL LFSO-Li2Fe4S4O-201023-075911-29373b -0.1798 763.826344 -1.10013081E+004 29.9713 30.8327 22 (Pba2) n - 1
REM
REM Run started: Fri, 23 Oct 2020 11:28:40 +0100 in /lustre/scratch/uccabz1/launch_tmp/launcher_2020-10-23-06-59-10-258863
REM CASTEP 20.1 from code version af48c487+ pr-geom-scf-spinfix Tue Jun 2 15:39:59 2020 +0100
REM Functional Perdew Burke Ernzerhof Relativity Koelling-Harmon Dispersion off
REM Cut-off 340.0000 eV Grid scale 1.7500 Gmax 16.5316 1/A FBSC none
REM MP grid 2 2 2 Offset 0.000 0.000 0.000 No. kpts 1 Spacing 0.07
REM Total runtime: 13405.7 s
REM Overall efficiency: 68.9167 %
REM
REM
REM
REM compiler GCC version 4.9.2
REM options -cpp -iprefix /lustre/shared/ucl/apps/gcc/4.9.2/bin/../lib/gcc/x86_64-unknown-linux-gnu/4.9.2/ -mtune=corei7 -march=x86-64 -g -Og
REM COMMAND_LINE
REM seed -402908224 798841872 975470809 -1181368082 -729677183 -884077113 754532587 -378284983 449816967 2036704994 -170232339 -1401367928
REM
REM S 3|1.8|5|6|7|30:31:32(qc=5)
REM O 2|1.5|12|13|15|20:21(qc=5)
REM Li 1|1.3|8|9|10|10U:20(qc=5)
REM Fe 3|2.2|2.0|1.0|8|9|10|40:41:32(qc=5)
REM Fe d:4.0 
REM
CELL 1.54180    7.03506   13.00936    8.34586   90.00000   90.00000   90.00000
LATT -1
SFAC Li O  S  Fe 
Li     1 -0.0862600000000  0.1407710000000  0.1914190000000 1.0  -0.05
Li     1  0.0862600000000  0.1407710000000 -0.1914190000000 1.0  -0.05
Li     1 -0.4137400000000  0.1407710000000 -0.3085810000000 1.0  -0.05
Li     1  0.4137400000000  0.1407710000000  0.3085810000000 1.0  -0.05
O      2 -0.0000000000000  0.0767950000000 -0.0000000000000 1.0   0.16
O      2 -0.5000000000000  0.0767950000000 -0.5000000000000 1.0   0.16
S      3 -0.0805060000000 -0.0034460000000 -0.3269350000000 1.0  -0.02
S      3  0.0805060000000 -0.0034460000000  0.3269350000000 1.0  -0.02
S      3 -0.4194940000000 -0.0034460000000  0.1730650000000 1.0  -0.02
S      3  0.4194940000000 -0.0034460000000 -0.1730650000000 1.0  -0.02
S      3 -0.3519650000000  0.3283330000000  0.1664530000000 1.0   0.13
S      3  0.3519650000000  0.3283330000000 -0.1664530000000 1.0   0.13
S      3 -0.1480350000000  0.3283330000000 -0.3335470000000 1.0   0.13
S      3  0.1480350000000  0.3283330000000  0.3335470000000 1.0   0.13
Fe     4  0.2671550000000  0.0050010000000 -0.4361920000000 1.0   3.73
Fe     4 -0.2671550000000  0.0050010000000  0.4361920000000 1.0   3.73
Fe     4  0.2328450000000  0.0050010000000  0.0638080000000 1.0   3.73
Fe     4 -0.2328450000000  0.0050010000000 -0.0638080000000 1.0   3.73
Fe     4  0.1667090000000  0.3754590000000 -0.3841820000000 1.0   3.63
Fe     4 -0.1667090000000  0.3754590000000  0.3841820000000 1.0   3.63
Fe     4  0.3332910000000  0.3754590000000  0.1158180000000 1.0   3.63
Fe     4 -0.3332910000000  0.3754590000000 -0.1158180000000 1.0   3.63
END
