TITL LFSO-Li2Fe3S2O2-201024-022551-03eeec -0.0325 194.746898 -4.46970607E+003 12.0000 12.0933 9 (P-1) n - 1
REM
REM Run started: Sat, 24 Oct 2020 05:45:57 +0100 in /scratch/scratch/uccabz1/launch_tmp/launcher_2020-10-24-01-25-49-701196
REM CASTEP 19.11| from code version Version unavailable
REM Functional Perdew Burke Ernzerhof Relativity Koelling-Harmon Dispersion off
REM Cut-off 340.0000 eV Grid scale 1.7500 Gmax 16.5316 1/A FBSC none
REM MP grid 4 3 5 Offset 0.000 0.000 0.000 No. kpts 30 Spacing 0.07
REM Total runtime: 14529.7 s
REM Overall efficiency: 97 %
REM
REM
REM
REM compiler GCC version 4.9.2
REM options -cpp -iprefix /scratch/UCL/applications/gcc/4.9.2/bin/../lib/gcc/x86_64-unknown-linux-gnu/4.9.2/ -mtune=corei7 -march=x86-64 -g -O2
REM COMMAND_LINE
REM seed -1854627188 -2097089054 -692841744 -1109782649 1157152450 -1320178698 1199271359 -1077548971 1061716065 -169740502 668094447 511617431
REM
REM S 3|1.8|5|6|7|30:31:32(qc=5)
REM O 2|1.5|12|13|15|20:21(qc=5)
REM Li 1|1.3|8|9|10|10U:20(qc=5)
REM Fe 3|2.2|2.0|1.0|8|9|10|40:41:32(qc=5)
REM Fe d:4.0 
REM
CELL 1.54180    6.23989    9.87184    6.20327  130.78339  109.38886  106.47205
LATT -1
SFAC Li O  S  Fe 
Li     1  0.3299290000000 -0.3590950000000  0.2674150000000 1.0  -0.02
Li     1 -0.3299290000000  0.3590950000000 -0.2674150000000 1.0  -0.02
O      2 -0.3085390000000 -0.0988020000000 -0.1891440000000 1.0   0.17
O      2  0.3085390000000  0.0988020000000  0.1891440000000 1.0   0.17
S      3 -0.0689590000000  0.1998220000000 -0.3505910000000 1.0   0.12
S      3  0.0689590000000 -0.1998220000000  0.3505910000000 1.0   0.12
Fe     4  0.0009130000000 -0.0358740000000  0.1986740000000 1.0   3.84
Fe     4 -0.0009130000000  0.0358740000000 -0.1986740000000 1.0   3.84
Fe     4  0.5000000000000  0.0000000000000  0.0000000000000 1.0   3.78
END
