TITL LFSO-Li5FeS2O2-201026-182406-0bb5ef 0.0533 299.802175 -6.69036235E+003 6.00461 7.95937 20 (Cc) n - 1
REM
REM Run started: Mon, 26 Oct 2020 23:56:00 +0000 in /scratch/scratch/uccabz1/launch_tmp/launcher_2020-10-26-18-24-04-982066
REM CASTEP 19.11| from code version Version unavailable
REM Functional Perdew Burke Ernzerhof Relativity Koelling-Harmon Dispersion off
REM Cut-off 340.0000 eV Grid scale 1.7500 Gmax 16.5316 1/A FBSC none
REM MP grid 3 3 3 Offset 0.000 0.000 0.000 No. kpts 10 Spacing 0.07
REM Total runtime: 21598.1 s
REM Overall efficiency: 83.6667 %
REM
REM
REM
REM compiler GCC version 4.9.2
REM options -cpp -iprefix /scratch/UCL/applications/gcc/4.9.2/bin/../lib/gcc/x86_64-unknown-linux-gnu/4.9.2/ -mtune=corei7 -march=x86-64 -g -O2
REM COMMAND_LINE
REM seed 1353428095 785782345 320988521 -338155819 268789987 1717142872 -1477108333 -188220885 466437414 594431772 1976005338 -301771688
REM
REM S 3|1.8|5|6|7|30:31:32(qc=5)
REM O 2|1.5|12|13|15|20:21(qc=5)
REM Li 1|1.3|8|9|10|10U:20(qc=5)
REM Fe 3|2.2|2.0|1.0|8|9|10|40:41:32(qc=5)
REM Fe d:4.0 
REM
CELL 1.54180    7.54171    7.54171    7.26603  116.14424  116.14424   56.97161
LATT -1
SFAC Li O  S  Fe 
Li     1  0.2817760000000 -0.3092150000000 -0.4026360000000 1.0   0.01
Li     1 -0.3092150000000  0.2817760000000  0.0973640000000 1.0   0.01
Li     1 -0.0281460000000 -0.5166560000000  0.3298500000000 1.0   0.04
Li     1 -0.5166560000000 -0.0281460000000 -0.1701500000000 1.0   0.04
Li     1  0.0261400000000 -0.0189870000000  0.3926390000000 1.0  -0.03
Li     1 -0.0189870000000  0.0261400000000 -0.1073610000000 1.0  -0.03
Li     1  0.2519140000000  0.2189670000000 -0.3809700000000 1.0  -0.02
Li     1  0.2189670000000  0.2519140000000  0.1190300000000 1.0  -0.02
Li     1 -0.2223290000000 -0.5007800000000 -0.1040640000000 1.0  -0.02
Li     1 -0.5007800000000 -0.2223290000000  0.3959360000000 1.0  -0.02
O      2 -0.0828750000000  0.3067500000000  0.0581780000000 1.0  -0.11
O      2  0.3067500000000 -0.0828750000000 -0.4418220000000 1.0  -0.11
O      2 -0.6274620000000  0.2884040000000 -0.0552020000000 1.0   0.06
O      2  0.2884040000000 -0.6274620000000 -0.5552020000000 1.0   0.06
S      3 -0.2283500000000 -0.6115060000000 -0.4973250000000 1.0  -0.16
S      3 -0.6115060000000 -0.2283500000000  0.0026750000000 1.0  -0.16
S      3 -0.1142490000000 -0.1788430000000  0.0234540000000 1.0  -0.26
S      3 -0.1788430000000 -0.1142490000000  0.5234540000000 1.0  -0.26
Fe     4  0.5836470000000  0.2227140000000  0.4787540000000 1.0   3.48
Fe     4  0.2227140000000  0.5836470000000 -0.0212460000000 1.0   3.48
END
