TITL LFSO-Li2Fe3S3O-201025-102746-8a98ed 0.0301 333.594008 -8.67139443E+003 24.0000 24.1788 18 (Ima2) n - 1
REM
REM Run started: Mon, 26 Oct 2020 05:04:57 +0000 in /lustre/scratch/uccabz1/launch_tmp/launcher_2020-10-25-10-27-44-708156
REM CASTEP 20.1 from code version af48c487+ pr-geom-scf-spinfix Tue Jun 2 15:39:59 2020 +0100
REM Functional Perdew Burke Ernzerhof Relativity Koelling-Harmon Dispersion off
REM Cut-off 340.0000 eV Grid scale 1.7500 Gmax 16.5316 1/A FBSC none
REM MP grid 3 3 3 Offset 0.000 0.000 0.000 No. kpts 8 Spacing 0.07
REM Total runtime: 70309 s
REM Overall efficiency: 97.8462 %
REM
REM
REM
REM compiler GCC version 4.9.2
REM options -cpp -iprefix /lustre/shared/ucl/apps/gcc/4.9.2/bin/../lib/gcc/x86_64-unknown-linux-gnu/4.9.2/ -mtune=corei7 -march=x86-64 -g -Og
REM COMMAND_LINE
REM seed 1089746383 492060225 1782251296 -865949001 -719377416 743992678 -818823449 1982203521 56204579 912738765 1845788819 1792858758
REM
REM S 3|1.8|5|6|7|30:31:32(qc=5)
REM O 2|1.5|12|13|15|20:21(qc=5)
REM Li 1|1.3|8|9|10|10U:20(qc=5)
REM Fe 3|2.2|2.0|1.0|8|9|10|40:41:32(qc=5)
REM Fe d:4.0 
REM
CELL 1.54180    9.15920    7.68784    7.68784   80.56670   53.43792   53.43792
LATT -1
SFAC Li O  S  Fe 
Li     1  0.1018730000000 -0.2261830000000  0.0400250000000 1.0  -0.03
Li     1  0.0842850000000  0.0400250000000 -0.2261830000000 1.0  -0.03
Li     1  0.0842850000000  0.2738170000000 -0.4599750000000 1.0  -0.03
Li     1  0.1018730000000 -0.4599750000000  0.2738170000000 1.0  -0.03
O      2 -0.0553530000000 -0.1270380000000  0.3729620000000 1.0   0.13
O      2 -0.1905710000000  0.3729620000000 -0.1270380000000 1.0   0.13
S      3 -0.1299130000000  0.4497390000000  0.3370180000000 1.0   0.09
S      3  0.3431570000000  0.3370180000000  0.4497390000000 1.0   0.09
S      3  0.3431570000000 -0.0502610000000 -0.1629820000000 1.0   0.09
S      3 -0.1299130000000 -0.1629820000000 -0.0502610000000 1.0   0.09
S      3  0.4359180000000  0.3790970000000 -0.1209030000000 1.0   0.12
S      3  0.3058870000000 -0.1209030000000  0.3790970000000 1.0   0.12
Fe     4 -0.3798850000000  0.2443990000000  0.0528690000000 1.0   3.85
Fe     4  0.0826170000000  0.0528690000000  0.2443990000000 1.0   3.85
Fe     4  0.0826170000000 -0.2556010000000 -0.4471310000000 1.0   3.85
Fe     4 -0.3798850000000 -0.4471310000000 -0.2556010000000 1.0   3.85
Fe     4 -0.2721750000000 -0.4047980000000  0.0952020000000 1.0   3.92
Fe     4 -0.4182300000000  0.0952020000000 -0.4047980000000 1.0   3.92
END
