TITL LFSO-Li4Fe3S4O-201029-080844-ed7e08 0.0059 237.705164 -5.03621630E+003 9.99377 10.5944 12 (R3) n - 1
REM
REM Run started: Thu, 29 Oct 2020 20:05:24 +0000 in /lustre/scratch/uccabz1/launch_tmp/launcher_2020-10-29-08-08-42-437708
REM CASTEP 20.1 from code version af48c487+ pr-geom-scf-spinfix Tue Jun 2 15:39:59 2020 +0100
REM Functional Perdew Burke Ernzerhof Relativity Koelling-Harmon Dispersion off
REM Cut-off 340.0000 eV Grid scale 1.7500 Gmax 16.5316 1/A FBSC none
REM MP grid 3 3 5 Offset 0.000 0.000 0.000 No. kpts 18 Spacing 0.07
REM Total runtime: 45984.5 s
REM Overall efficiency: 97.7 %
REM
REM
REM
REM compiler GCC version 4.9.2
REM options -cpp -iprefix /lustre/shared/ucl/apps/gcc/4.9.2/bin/../lib/gcc/x86_64-unknown-linux-gnu/4.9.2/ -mtune=corei7 -march=x86-64 -g -Og
REM COMMAND_LINE
REM seed 577698709 1140887518 -1631459460 -1151335710 1971716893 -865739159 303442049 1952033424 -1121169611 -667582684 1084530160 1633438182
REM
REM S 3|1.8|5|6|7|30:31:32(qc=5)
REM O 2|1.5|12|13|15|20:21(qc=5)
REM Li 1|1.3|8|9|10|10U:20(qc=5)
REM Fe 3|2.2|2.0|1.0|8|9|10|40:41:32(qc=5)
REM Fe d:4.0 
REM
CELL 1.54180    9.12285    9.12285    6.21440   42.77643   42.77643   60.00000
LATT -1
SFAC Li O  S  Fe 
Li     1 -0.0316570000000  0.1256630000000  0.2792890000000 1.0  -0.09
Li     1  0.1256630000000 -0.3732950000000  0.2792890000000 1.0  -0.09
Li     1 -0.3732950000000 -0.0316570000000  0.2792890000000 1.0  -0.09
Li     1  0.3176010000000  0.3176010000000  0.0471970000000 1.0  -0.02
O      2  0.1422080000000  0.1422080000000  0.5733750000000 1.0   0.16
S      3  0.0988850000000  0.5138510000000 -0.1933030000000 1.0   0.01
S      3  0.5138510000000 -0.4194330000000 -0.1933030000000 1.0   0.01
S      3 -0.4194330000000  0.0988850000000 -0.1933030000000 1.0   0.01
S      3 -0.0215810000000 -0.0215810000000  0.0647430000000 1.0   0.18
Fe     4  0.3557440000000 -0.2062200000000  0.3052330000000 1.0   3.31
Fe     4 -0.2062200000000  0.5452430000000  0.3052330000000 1.0   3.31
Fe     4  0.5452430000000  0.3557440000000  0.3052330000000 1.0   3.31
END
