TITL LFSO-Li6FeS3O-201027-170932-6ef196 -0.0041 423.641853 -6.81916722E+003 4.11571 7.79677 22 (Fdd2) n - 1
REM
REM Run started: Tue, 27 Oct 2020 19:34:26 +0000 in /lustre/scratch/uccabz1/launch_tmp/launcher_2020-10-27-17-09-30-569934
REM CASTEP 20.1 from code version af48c487+ pr-geom-scf-spinfix Tue Jun 2 15:39:59 2020 +0100
REM Functional Perdew Burke Ernzerhof Relativity Koelling-Harmon Dispersion off
REM Cut-off 340.0000 eV Grid scale 1.7500 Gmax 16.5316 1/A FBSC none
REM MP grid 3 3 3 Offset 0.000 0.000 0.000 No. kpts 8 Spacing 0.07
REM Total runtime: 9881.13 s
REM Overall efficiency: 97.1667 %
REM
REM
REM
REM compiler GCC version 4.9.2
REM options -cpp -iprefix /lustre/shared/ucl/apps/gcc/4.9.2/bin/../lib/gcc/x86_64-unknown-linux-gnu/4.9.2/ -mtune=corei7 -march=x86-64 -g -Og
REM COMMAND_LINE
REM seed -1316338321 1847117427 596442150 -724379630 -495680731 -781520485 -517109802 257843190 1550659244 1826035 1017521476 -1316958424
REM
REM S 3|1.8|5|6|7|30:31:32(qc=5)
REM O 2|1.5|12|13|15|20:21(qc=5)
REM Li 1|1.3|8|9|10|10U:20(qc=5)
REM Fe 3|2.2|2.0|1.0|8|9|10|40:41:32(qc=5)
REM Fe d:4.0 
REM
CELL 1.54180    8.41481    8.41481    8.10081  114.57277  114.57277  101.49826
LATT -1
SFAC Li O  S  Fe 
Li     1  0.2969950000000 -0.0484960000000 -0.2258070000000 1.0  -0.07
Li     1  0.1773110000000  0.5228010000000  0.2258070000000 1.0  -0.07
Li     1 -0.2271990000000 -0.0726890000000 -0.2741930000000 1.0  -0.07
Li     1  0.2015040000000  0.0469950000000  0.2741930000000 1.0  -0.07
Li     1 -0.0351180000000 -0.3386750000000  0.3263370000000 1.0  -0.02
Li     1  0.3349880000000 -0.3614550000000 -0.3263370000000 1.0  -0.02
Li     1 -0.1114550000000  0.0849880000000  0.1736630000000 1.0  -0.02
Li     1 -0.0886750000000 -0.2851180000000 -0.1736630000000 1.0  -0.02
Li     1 -0.3971650000000  0.2796060000000  0.2748700000000 1.0   0.01
Li     1  0.0047360000000  0.3279650000000 -0.2748700000000 1.0   0.01
Li     1 -0.4220350000000 -0.2452640000000  0.2251300000000 1.0   0.01
Li     1 -0.4703940000000  0.3528350000000 -0.2251300000000 1.0   0.01
O      2 -0.0136260000000 -0.0136260000000 -0.0000000000000 1.0   0.01
O      2  0.2363740000000 -0.2636260000000  0.5000000000000 1.0   0.01
S      3  0.1859820000000  0.3032040000000 -0.4577290000000 1.0  -0.22
S      3 -0.2390670000000 -0.3562890000000  0.4577290000000 1.0  -0.22
S      3 -0.1062890000000 -0.4890670000000 -0.0422710000000 1.0  -0.22
S      3 -0.4467960000000 -0.0640180000000  0.0422710000000 1.0  -0.22
S      3 -0.3868380000000  0.1131620000000 -0.5000000000000 1.0  -0.36
S      3  0.3631620000000  0.3631620000000 -0.0000000000000 1.0  -0.36
Fe     4  0.1595940000000  0.1595940000000 -0.0000000000000 1.0   3.02
Fe     4  0.4095940000000 -0.0904060000000  0.5000000000000 1.0   3.02
END
