TITL LFSO-Li5FeSO3-201026-230116-f7337e 0.0012 123.986333 -3.47626681E+003 4.97014 5.08825 10 (P-1) n - 1
REM
REM Run started: Mon, 26 Oct 2020 23:52:40 +0000 in /scratch/scratch/uccabz1/launch_tmp/launcher_2020-10-26-23-01-14-992661
REM CASTEP 19.11| from code version Version unavailable
REM Functional Perdew Burke Ernzerhof Relativity Koelling-Harmon Dispersion off
REM Cut-off 340.0000 eV Grid scale 1.7500 Gmax 16.5316 1/A FBSC none
REM MP grid 4 3 4 Offset 0.000 0.000 0.000 No. kpts 24 Spacing 0.07
REM Total runtime: 3688.98 s
REM Overall efficiency: 96 %
REM
REM
REM
REM compiler GCC version 4.9.2
REM options -cpp -iprefix /scratch/UCL/applications/gcc/4.9.2/bin/../lib/gcc/x86_64-unknown-linux-gnu/4.9.2/ -mtune=corei7 -march=x86-64 -g -O2
REM COMMAND_LINE
REM seed -1928069298 1207636337 1078655746 -168719955 -1686933893 1520392872 1122155101 1782610767 -357358774 -473813078 378969648 4968817
REM
REM S 3|1.8|5|6|7|30:31:32(qc=5)
REM O 2|1.5|12|13|15|20:21(qc=5)
REM Li 1|1.3|8|9|10|10U:20(qc=5)
REM Fe 3|2.2|2.0|1.0|8|9|10|40:41:32(qc=5)
REM Fe d:4.0 
REM
CELL 1.54180    4.73718    7.66559    6.31231  133.54731   53.80609  129.01255
LATT -1
SFAC Li O  S  Fe 
Li     1 -0.0875890000000 -0.3366900000000 -0.4014410000000 1.0  -0.05
Li     1  0.0875890000000  0.3366900000000  0.4014410000000 1.0  -0.05
Li     1  0.2520080000000  0.3162790000000 -0.0324740000000 1.0  -0.01
Li     1 -0.2520080000000 -0.3162790000000  0.0324740000000 1.0  -0.01
Li     1  0.5000000000000  0.0000000000000 -0.5000000000000 1.0  -0.06
O      2  0.3581530000000 -0.3779800000000  0.3371160000000 1.0   0.32
O      2 -0.3581530000000  0.3779800000000 -0.3371160000000 1.0   0.32
O      2  0.0000000000000  0.0000000000000  0.0000000000000 1.0   0.10
S      3  0.0000000000000  0.0000000000000 -0.5000000000000 1.0   0.47
Fe     4 -0.5000000000000  0.0000000000000  0.0000000000000 1.0   3.94
END
