TITL LFSO-Li5FeS2O2-201025-194215-e6df7e -0.0194 150.985671 -3.34063749E+003 -4.95747 4.99165 10 (R3) n - 1
REM
REM Run started: Sun, 25 Oct 2020 21:58:53 +0000 in /scratch/scratch/uccabz1/launch_tmp/launcher_2020-10-25-19-42-12-601481
REM CASTEP 19.11| from code version Version unavailable
REM Functional Perdew Burke Ernzerhof Relativity Koelling-Harmon Dispersion off
REM Cut-off 340.0000 eV Grid scale 1.7500 Gmax 16.5316 1/A FBSC none
REM MP grid 4 4 3 Offset 0.000 0.000 0.000 No. kpts 24 Spacing 0.07
REM Total runtime: 8849.62 s
REM Overall efficiency: 95.5714 %
REM
REM
REM
REM compiler GCC version 4.9.2
REM options -cpp -iprefix /scratch/UCL/applications/gcc/4.9.2/bin/../lib/gcc/x86_64-unknown-linux-gnu/4.9.2/ -mtune=corei7 -march=x86-64 -g -O2
REM COMMAND_LINE
REM seed -1946307253 1545312240 -1812760642 1989834727 -679263042 -817319846 -186047927 -1878452201 1350653800 -880119011 1073643310 581510037
REM
REM S 3|1.8|5|6|7|30:31:32(qc=5)
REM O 2|1.5|12|13|15|20:21(qc=5)
REM Li 1|1.3|8|9|10|10U:20(qc=5)
REM Fe 3|2.2|2.0|1.0|8|9|10|40:41:32(qc=5)
REM Fe d:4.0 
REM
CELL 1.54180    5.13215    5.13215    7.25215   69.27789   69.27789   60.00000
LATT -1
SFAC Li O  S  Fe 
Li     1  0.4208550000000 -0.2282430000000 -0.1274990000000 1.0   0.00
Li     1 -0.2282430000000 -0.0651130000000 -0.1274990000000 1.0   0.00
Li     1 -0.0651130000000  0.4208550000000 -0.1274990000000 1.0   0.00
Li     1 -0.4409280000000 -0.4409280000000  1.3227830000000 1.0   0.07
Li     1  0.3067640000000  0.3067640000000 -0.9202910000000 1.0   0.01
O      2  0.0549070000000  0.0549070000000 -0.1647220000000 1.0  -0.38
O      2 -0.3510600000000 -0.3510600000000  1.0531790000000 1.0  -0.04
S      3  0.4342240000000  0.4342240000000 -1.3026730000000 1.0  -0.36
S      3 -0.1581840000000 -0.1581840000000  0.4745510000000 1.0  -0.25
Fe     4  0.1455310000000  0.1455310000000 -0.4365920000000 1.0  -4.00
END
