TITL LFSO-Li5FeSO3-201027-015002-053a1b 0.0433 187.447929 -3.47654621E+003 1.00019 2.75718 10 (P3) n - 1
REM
REM Run started: Tue, 27 Oct 2020 02:18:21 +0000 in /lustre/scratch/uccabz1/launch_tmp/launcher_2020-10-27-01-50-01-184495
REM CASTEP 20.1 from code version af48c487+ pr-geom-scf-spinfix Tue Jun 2 15:39:59 2020 +0100
REM Functional Perdew Burke Ernzerhof Relativity Koelling-Harmon Dispersion off
REM Cut-off 340.0000 eV Grid scale 1.7500 Gmax 16.5316 1/A FBSC none
REM MP grid 3 3 3 Offset 0.000 0.000 0.000 No. kpts 8 Spacing 0.07
REM Total runtime: 1719.49 s
REM Overall efficiency: 68.4286 %
REM
REM
REM
REM compiler GCC version 4.9.2
REM options -cpp -iprefix /lustre/shared/ucl/apps/gcc/4.9.2/bin/../lib/gcc/x86_64-unknown-linux-gnu/4.9.2/ -mtune=corei7 -march=x86-64 -g -Og
REM COMMAND_LINE
REM seed -2075917407 1330619928 -1887753778 -771050179 -617487111 -443403709 1546581435 1161491043 1148650562 -364630566 484621059 58866904
REM
REM S 3|1.8|5|6|7|30:31:32(qc=5)
REM O 2|1.5|12|13|15|20:21(qc=5)
REM Li 1|1.3|8|9|10|10U:20(qc=5)
REM Fe 3|2.2|2.0|1.0|8|9|10|40:41:32(qc=5)
REM Fe d:4.0 
REM
CELL 1.54180    5.58720    5.58720    6.93364   90.00000   90.00000  120.00000
LATT -1
SFAC Li O  S  Fe 
Li     1  0.0338110000000  0.2908610000000 -0.0701630000000 1.0  -0.02
Li     1  0.2570510000000 -0.0338110000000 -0.0701630000000 1.0  -0.02
Li     1 -0.2908610000000 -0.2570510000000 -0.0701630000000 1.0  -0.02
Li     1  0.3333330000000 -0.3333330000000 -0.2326510000000 1.0   0.02
Li     1 -0.3333330000000  0.3333330000000 -0.2922420000000 1.0   0.02
O      2 -0.0274950000000 -0.3963000000000 -0.1129580000000 1.0  -0.04
O      2 -0.3688050000000  0.0274950000000 -0.1129580000000 1.0  -0.04
O      2  0.3963000000000  0.3688050000000 -0.1129580000000 1.0  -0.04
S      3 -0.3333330000000  0.3333330000000  0.3592220000000 1.0  -0.66
Fe     4 -0.3333330000000  0.3333330000000  0.0591160000000 1.0   1.80
END
