TITL LFSO-Li4Fe3S3O2-201028-205808-7a8009 -0.0382 474.086310 -1.03440576E+004 21.9747 22.7936 24 (Aem2) n - 1
REM
REM Run started: Thu, 29 Oct 2020 20:22:20 +0000 in /lustre/scratch/uccabz1/launch_tmp/launcher_2020-10-28-20-58-06-301287
REM CASTEP 20.1 from code version af48c487+ pr-geom-scf-spinfix Tue Jun 2 15:39:59 2020 +0100
REM Functional Perdew Burke Ernzerhof Relativity Koelling-Harmon Dispersion off
REM Cut-off 340.0000 eV Grid scale 1.7500 Gmax 16.5316 1/A FBSC none
REM MP grid 5 2 2 Offset 0.000 0.000 0.000 No. kpts 6 Spacing 0.07
REM Total runtime: 89884.5 s
REM Overall efficiency: 92.9231 %
REM
REM
REM
REM compiler GCC version 4.9.2
REM options -cpp -iprefix /lustre/shared/ucl/apps/gcc/4.9.2/bin/../lib/gcc/x86_64-unknown-linux-gnu/4.9.2/ -mtune=corei7 -march=x86-64 -g -Og
REM COMMAND_LINE
REM seed -1585873196 1459258569 1157494779 1390620790 515564353 -636333711 1775979681 -665275464 1887079144 -1257688062 -739449360 425213875
REM
REM S 3|1.8|5|6|7|30:31:32(qc=5)
REM O 2|1.5|12|13|15|20:21(qc=5)
REM Li 1|1.3|8|9|10|10U:20(qc=5)
REM Fe 3|2.2|2.0|1.0|8|9|10|40:41:32(qc=5)
REM Fe d:4.0 
REM
CELL 1.54180    3.25406   11.80493   13.68035  115.55999   90.00000   90.00000
LATT -1
SFAC Li O  S  Fe 
Li     1 -0.2540780000000  0.2600060000000  0.1568840000000 1.0   0.00
Li     1  0.2540780000000  0.1031220000000 -0.1568840000000 1.0   0.00
Li     1 -0.2540780000000 -0.3968780000000 -0.1568840000000 1.0   0.00
Li     1  0.2540780000000 -0.2399940000000  0.1568840000000 1.0   0.00
Li     1 -0.5231380000000 -0.4976050000000  0.1048510000000 1.0  -0.06
Li     1  0.5231380000000  0.3975450000000 -0.1048500000000 1.0  -0.06
Li     1 -0.5231380000000 -0.1024550000000 -0.1048500000000 1.0  -0.06
Li     1  0.5231380000000  0.0023950000000  0.1048510000000 1.0  -0.06
O      2  0.5256090000000  0.4184100000000  0.1960190000000 1.0   0.14
O      2 -0.5256090000000  0.2223910000000 -0.1960190000000 1.0   0.14
O      2  0.5256090000000 -0.2776090000000 -0.1960190000000 1.0   0.14
O      2 -0.5256090000000 -0.0815900000000  0.1960190000000 1.0   0.14
S      3 -0.4698410000000 -0.1218640000000 -0.3166200000000 1.0  -0.02
S      3  0.4698410000000  0.1947560000000  0.3166210000000 1.0  -0.02
S      3 -0.4698410000000 -0.3052440000000  0.3166210000000 1.0  -0.02
S      3  0.4698410000000  0.3781360000000 -0.3166200000000 1.0  -0.02
S      3  0.0000000000000  0.0612910000000  0.0000000000000 1.0   0.08
S      3  0.0000000000000 -0.4387090000000  0.0000000000000 1.0   0.08
Fe     4  0.0268950000000 -0.2442370000000 -0.2671370000000 1.0   3.71
Fe     4 -0.0268950000000  0.0229010000000  0.2671370000000 1.0   3.71
Fe     4  0.0268950000000 -0.4770990000000  0.2671370000000 1.0   3.71
Fe     4 -0.0268950000000  0.2557630000000 -0.2671370000000 1.0   3.71
Fe     4 -0.4182720000000 -0.2116690000000  0.5000000000000 1.0   3.37
Fe     4  0.4182720000000  0.2883310000000  0.5000000000000 1.0   3.37
END
