TITL LFSO-Li3FeS2O-201024-171203-3edb3c 0.0061 432.347658 -7.51969015E+003 9.00000 11.0771 21 (P31) n - 1
REM
REM Run started: Sat, 24 Oct 2020 22:14:12 +0100 in /lustre/scratch/uccabz1/launch_tmp/launcher_2020-10-24-16-12-01-954831
REM CASTEP 20.1 from code version af48c487+ pr-geom-scf-spinfix Tue Jun 2 15:39:59 2020 +0100
REM Functional Perdew Burke Ernzerhof Relativity Koelling-Harmon Dispersion off
REM Cut-off 340.0000 eV Grid scale 1.7500 Gmax 16.5316 1/A FBSC none
REM MP grid 3 3 2 Offset 0.000 0.000 0.000 No. kpts 5 Spacing 0.07
REM Total runtime: 19772 s
REM Overall efficiency: 72.5833 %
REM
REM
REM
REM compiler GCC version 4.9.2
REM options -cpp -iprefix /lustre/shared/ucl/apps/gcc/4.9.2/bin/../lib/gcc/x86_64-unknown-linux-gnu/4.9.2/ -mtune=corei7 -march=x86-64 -g -Og
REM COMMAND_LINE
REM seed 821712080 2042500812 265256249 -1899041948 594393836 920325029 1403032332 -721224488 2031994329 1834719562 1724025009 2084429908
REM
REM S 3|1.8|5|6|7|30:31:32(qc=5)
REM O 2|1.5|12|13|15|20:21(qc=5)
REM Li 1|1.3|8|9|10|10U:20(qc=5)
REM Fe 3|2.2|2.0|1.0|8|9|10|40:41:32(qc=5)
REM Fe d:4.0 
REM
CELL 1.54180    6.20786    6.20786   12.95444   90.00000   90.00000  120.00000
LATT -1
SFAC Li O  S  Fe 
Li     1  0.5327360000000  0.1401510000000 -0.4367040000000 1.0  -0.00
Li     1 -0.3925850000000 -0.5327360000000  0.2299620000000 1.0  -0.00
Li     1 -0.1401510000000  0.3925850000000 -0.1033710000000 1.0  -0.00
Li     1  0.3252170000000 -0.5674890000000  0.5068840000000 1.0  -0.01
Li     1  0.1072940000000 -0.3252170000000  0.1735510000000 1.0  -0.01
Li     1  0.5674890000000 -0.1072940000000 -0.1597820000000 1.0  -0.01
Li     1 -0.2387350000000  0.0689240000000  0.1042970000000 1.0  -0.02
Li     1  0.3076590000000  0.2387350000000 -0.2290360000000 1.0  -0.02
Li     1 -0.0689240000000 -0.3076590000000  0.4376310000000 1.0  -0.02
O      2 -0.4695410000000  0.1869800000000 -0.1430360000000 1.0   0.05
O      2 -0.3434790000000  0.4695410000000 -0.4763700000000 1.0   0.05
O      2 -0.1869800000000  0.3434790000000  0.1902970000000 1.0   0.05
S      3  0.1056200000000  0.0347520000000 -0.4019550000000 1.0  -0.16
S      3 -0.0708680000000 -0.1056200000000  0.2647120000000 1.0  -0.16
S      3 -0.0347520000000  0.0708680000000 -0.0686220000000 1.0  -0.16
S      3 -0.6340860000000 -0.2499120000000  0.0229820000000 1.0  -0.12
S      3  0.3841740000000  0.6340860000000 -0.3103510000000 1.0  -0.12
S      3  0.2499120000000 -0.3841740000000  0.3563160000000 1.0  -0.12
Fe     4  0.2877080000000  0.0231490000000 -0.0491820000000 1.0   3.25
Fe     4 -0.2645600000000 -0.2877080000000 -0.3825150000000 1.0   3.25
Fe     4 -0.0231490000000  0.2645600000000  0.2841510000000 1.0   3.25
END
