TITL LFSO-Li6FeS3O-201027-155843-321a77 -0.2638 421.446399 -6.82333929E+003 8.00000 8.26817 22 (Pnc2) n - 1
REM
REM Run started: Tue, 27 Oct 2020 19:04:34 +0000 in /lustre/scratch/uccabz1/launch_tmp/launcher_2020-10-27-15-58-41-859069
REM CASTEP 20.1 from code version af48c487+ pr-geom-scf-spinfix Tue Jun 2 15:39:59 2020 +0100
REM Functional Perdew Burke Ernzerhof Relativity Koelling-Harmon Dispersion off
REM Cut-off 340.0000 eV Grid scale 1.7500 Gmax 16.5316 1/A FBSC none
REM MP grid 3 2 2 Offset 0.000 0.000 0.000 No. kpts 2 Spacing 0.07
REM Total runtime: 12185.6 s
REM Overall efficiency: 82 %
REM
REM
REM
REM compiler GCC version 4.9.2
REM options -cpp -iprefix /lustre/shared/ucl/apps/gcc/4.9.2/bin/../lib/gcc/x86_64-unknown-linux-gnu/4.9.2/ -mtune=corei7 -march=x86-64 -g -Og
REM COMMAND_LINE
REM seed 335326253 1453243767 -177865907 -536641400 -1154155718 1681693064 -1332792228 662674788 -594095207 589408923 1289356687 -151021154
REM
REM S 3|1.8|5|6|7|30:31:32(qc=5)
REM O 2|1.5|12|13|15|20:21(qc=5)
REM Li 1|1.3|8|9|10|10U:20(qc=5)
REM Fe 3|2.2|2.0|1.0|8|9|10|40:41:32(qc=5)
REM Fe d:4.0 
REM
CELL 1.54180    6.89044    7.94381    7.69957   90.00000   90.00000   90.00000
LATT -1
SFAC Li O  S  Fe 
Li     1  0.3201900000000  0.0802890000000  0.2119940000000 1.0  -0.02
Li     1 -0.3201900000000  0.0802890000000 -0.2119940000000 1.0  -0.02
Li     1  0.1798100000000 -0.4197110000000  0.2119940000000 1.0  -0.02
Li     1 -0.1798100000000 -0.4197110000000 -0.2119940000000 1.0  -0.02
Li     1  0.2044070000000  0.2890800000000  0.4877670000000 1.0   0.02
Li     1 -0.2044070000000  0.2890800000000 -0.4877670000000 1.0   0.02
Li     1  0.2955930000000 -0.2109200000000  0.4877670000000 1.0   0.02
Li     1 -0.2955930000000 -0.2109200000000 -0.4877670000000 1.0   0.02
Li     1 -0.1771950000000 -0.3807390000000  0.1873120000000 1.0  -0.02
Li     1  0.1771950000000 -0.3807390000000 -0.1873120000000 1.0  -0.02
Li     1 -0.3228050000000  0.1192610000000  0.1873120000000 1.0  -0.02
Li     1  0.3228050000000  0.1192610000000 -0.1873120000000 1.0  -0.02
O      2 -0.0000000000000 -0.4181000000000  0.0000000000000 1.0   0.13
O      2 -0.5000000000000  0.0819000000000  0.0000000000000 1.0   0.13
S      3  0.0039490000000  0.1855990000000  0.2503660000000 1.0   0.09
S      3 -0.0039490000000  0.1855990000000 -0.2503660000000 1.0   0.09
S      3 -0.5039490000000 -0.3144010000000  0.2503660000000 1.0   0.09
S      3  0.5039490000000 -0.3144010000000 -0.2503660000000 1.0   0.09
S      3 -0.0000000000000  0.6091520000000 -0.5000000000000 1.0   0.01
S      3 -0.5000000000000  0.1091520000000 -0.5000000000000 1.0   0.01
Fe     4 -0.5000000000000 -0.1599200000000  0.0000000000000 1.0   3.72
Fe     4 -0.0000000000000  0.3400800000000  0.0000000000000 1.0   3.72
END
