TITL LFSO-Li2Fe2S2O-201022-034330-66ef1a -0.0239 413.821024 -9.50818414E+003 23.9998 24.2272 21 (R3) n - 1
REM
REM Run started: Thu, 22 Oct 2020 12:57:22 +0100 in /lustre/scratch/uccabz1/launch_tmp/launcher_2020-10-22-11-53-10-958536
REM CASTEP 20.1 from code version af48c487+ pr-geom-scf-spinfix Tue Jun 2 15:39:59 2020 +0100
REM Functional Perdew Burke Ernzerhof Relativity Koelling-Harmon Dispersion off
REM Cut-off 340.0000 eV Grid scale 1.7500 Gmax 16.5316 1/A FBSC none
REM MP grid 2 2 2 Offset 0.000 0.000 0.000 No. kpts 2 Spacing 0.07
REM Total runtime: 28978 s
REM Overall efficiency: 88.2 %
REM
REM
REM
REM compiler GCC version 4.9.2
REM options -cpp -iprefix /scratch/UCL/applications/gcc/4.9.2/bin/../lib/gcc/x86_64-unknown-linux-gnu/4.9.2/ -mtune=corei7 -march=x86-64 -g -O2
REM COMMAND_LINE
REM seed 1430813153 1901599267 -1782554606 -2120495374 20641616 1498710033 25349680 813233286 -161248870 -1934308947 -1717100208 332022979
REM
REM S 3|1.8|5|6|7|30:31:32(qc=5)
REM O 2|1.5|12|13|15|20:21(qc=5)
REM Li 1|1.3|8|9|10|10U:20(qc=5)
REM Fe 3|2.2|2.0|1.0|8|9|10|40:41:32(qc=5)
REM Fe d:4.0 
REM
CELL 1.54180    7.58121    7.58121    7.58121   78.83100   78.83100   78.83100
LATT -1
SFAC Li O  S  Fe 
Li     1 -0.1332790000000 -0.2338840000000  0.4655000000000 1.0  -0.03
Li     1 -0.2338840000000  0.4655000000000 -0.1332790000000 1.0  -0.03
Li     1  0.4655000000000 -0.1332790000000 -0.2338840000000 1.0  -0.03
Li     1 -0.2332550000000  0.0906340000000 -0.0636970000000 1.0  -0.00
Li     1  0.0906340000000 -0.0636970000000 -0.2332550000000 1.0  -0.00
Li     1 -0.0636970000000 -0.2332550000000  0.0906340000000 1.0  -0.00
O      2  0.1835190000000 -0.1885290000000 -0.0080410000000 1.0   0.19
O      2 -0.1885290000000 -0.0080410000000  0.1835190000000 1.0   0.19
O      2 -0.0080410000000  0.1835190000000 -0.1885290000000 1.0   0.19
S      3  0.4433280000000  0.2374950000000  0.0077700000000 1.0   0.12
S      3  0.2374950000000  0.0077700000000  0.4433280000000 1.0   0.12
S      3  0.0077700000000  0.4433280000000  0.2374950000000 1.0   0.12
S      3  0.0410930000000 -0.4177310000000 -0.3037990000000 1.0   0.16
S      3 -0.4177310000000 -0.3037990000000  0.0410930000000 1.0   0.16
S      3 -0.3037990000000  0.0410930000000 -0.4177310000000 1.0   0.16
Fe     4  0.0559280000000  0.3044540000000  0.5447220000000 1.0   3.82
Fe     4  0.3044540000000  0.5447220000000  0.0559280000000 1.0   3.82
Fe     4  0.5447220000000  0.0559280000000  0.3044540000000 1.0   3.82
Fe     4 -0.0893750000000  0.1239350000000  0.3331770000000 1.0   3.74
Fe     4  0.1239350000000  0.3331770000000 -0.0893750000000 1.0   3.74
Fe     4  0.3331770000000 -0.0893750000000  0.1239350000000 1.0   3.74
END
