TITL LFSO-Li2FeSO-201024-163009-2e4dd0 0.0705 242.096998 -4.00408609E+003 8.00000 8.23625 10 (R3) n - 1
REM
REM Run started: Sat, 24 Oct 2020 18:22:10 +0100 in /lustre/scratch/uccabz1/launch_tmp/launcher_2020-10-24-15-30-07-768635
REM CASTEP 20.1 from code version af48c487+ pr-geom-scf-spinfix Tue Jun 2 15:39:59 2020 +0100
REM Functional Perdew Burke Ernzerhof Relativity Koelling-Harmon Dispersion off
REM Cut-off 340.0000 eV Grid scale 1.7500 Gmax 16.5316 1/A FBSC none
REM MP grid 3 3 3 Offset 0.000 0.000 0.000 No. kpts 6 Spacing 0.07
REM Total runtime: 6781.88 s
REM Overall efficiency: 92.4444 %
REM
REM
REM
REM compiler GCC version 4.9.2
REM options -cpp -iprefix /lustre/shared/ucl/apps/gcc/4.9.2/bin/../lib/gcc/x86_64-unknown-linux-gnu/4.9.2/ -mtune=corei7 -march=x86-64 -g -Og
REM COMMAND_LINE
REM seed -1117455064 1203042489 705663636 -1451351956 -189515116 -1437213735 -1060599056 1288200162 118159623 -1615718641 1642663892 779033154
REM
REM S 3|1.8|5|6|7|30:31:32(qc=5)
REM O 2|1.5|12|13|15|20:21(qc=5)
REM Li 1|1.3|8|9|10|10U:20(qc=5)
REM Fe 3|2.2|2.0|1.0|8|9|10|40:41:32(qc=5)
REM Fe d:4.0 
REM
CELL 1.54180    6.32969    6.32969    7.87650   66.30869   66.30869   60.00000
LATT -1
SFAC Li O  S  Fe 
Li     1 -0.3323560000000  0.5270840000000 -0.2667230000000 1.0  -0.06
Li     1  0.0719940000000 -0.3323560000000 -0.2667230000000 1.0  -0.06
Li     1  0.5270840000000  0.0719940000000 -0.2667230000000 1.0  -0.06
Li     1  0.2541970000000  0.2541970000000  0.2374100000000 1.0  -0.02
O      2 -0.2220500000000 -0.2220500000000 -0.3338510000000 1.0   0.15
O      2 -0.0513140000000 -0.0513140000000  0.1539420000000 1.0   0.23
S      3  0.1398130000000  0.1398130000000  0.5805610000000 1.0   0.13
S      3  0.3634590000000  0.3634590000000 -0.0903760000000 1.0   0.03
Fe     4 -0.1361000000000 -0.1361000000000 -0.5917000000000 1.0   3.80
Fe     4  0.0359780000000  0.0359780000000 -0.1079350000000 1.0   3.85
END
