TITL LFSO-Li2Fe3S3O-201026-034832-f4064e -0.3071 378.435879 -8.67089363E+003 24.0000 24.2021 18 (Pmc21) n - 1
REM
REM Run started: Mon, 26 Oct 2020 06:03:55 +0000 in /lustre/scratch/uccabz1/launch_tmp/launcher_2020-10-26-03-48-31-096508
REM CASTEP 20.1 from code version af48c487+ pr-geom-scf-spinfix Tue Jun 2 15:39:59 2020 +0100
REM Functional Perdew Burke Ernzerhof Relativity Koelling-Harmon Dispersion off
REM Cut-off 340.0000 eV Grid scale 1.7500 Gmax 16.5316 1/A FBSC none
REM MP grid 4 2 2 Offset 0.000 0.000 0.000 No. kpts 2 Spacing 0.07
REM Total runtime: 8663.83 s
REM Overall efficiency: 73.5 %
REM
REM
REM
REM compiler GCC version 4.9.2
REM options -cpp -iprefix /lustre/shared/ucl/apps/gcc/4.9.2/bin/../lib/gcc/x86_64-unknown-linux-gnu/4.9.2/ -mtune=corei7 -march=x86-64 -g -Og
REM COMMAND_LINE
REM seed 563526819 -682680906 -229839965 95817106 -657293459 565918361 -301570018 -1502691171 2015784403 -183724628 415321739 1635123662
REM
REM S 3|1.8|5|6|7|30:31:32(qc=5)
REM O 2|1.5|12|13|15|20:21(qc=5)
REM Li 1|1.3|8|9|10|10U:20(qc=5)
REM Fe 3|2.2|2.0|1.0|8|9|10|40:41:32(qc=5)
REM Fe d:4.0 
REM
CELL 1.54180    3.56081    9.56020   11.11670   90.00000   90.00000   90.00000
LATT -1
SFAC Li O  S  Fe 
Li     1 -0.1195150000000  0.3479210000000  0.5242420000000 1.0  -0.03
Li     1  0.1195150000000 -0.3479210000000  0.0242420000000 1.0  -0.03
Li     1  0.1195150000000  0.3479210000000  0.0242420000000 1.0  -0.03
Li     1 -0.1195150000000 -0.3479210000000  0.5242420000000 1.0  -0.03
O      2  0.0395080000000  0.5000000000000  0.1274740000000 1.0   0.12
O      2 -0.0395080000000 -0.5000000000000 -0.3725260000000 1.0   0.12
S      3  0.3953170000000  0.3031940000000  0.3704410000000 1.0   0.13
S      3 -0.3953170000000 -0.3031940000000 -0.1295590000000 1.0   0.13
S      3 -0.3953170000000  0.3031940000000 -0.1295590000000 1.0   0.13
S      3  0.3953170000000 -0.3031940000000  0.3704410000000 1.0   0.13
S      3  0.1211540000000  0.0000000000000  0.1630280000000 1.0   0.25
S      3 -0.1211540000000  0.0000000000000 -0.3369720000000 1.0   0.25
Fe     4  0.1221160000000  0.1656870000000 -0.2116810000000 1.0   3.77
Fe     4 -0.1221160000000 -0.1656870000000  0.2883190000000 1.0   3.77
Fe     4 -0.1221160000000  0.1656870000000  0.2883190000000 1.0   3.77
Fe     4  0.1221160000000 -0.1656870000000 -0.2116810000000 1.0   3.77
Fe     4  0.4713820000000 -0.5000000000000 -0.2889420000000 1.0   3.89
Fe     4 -0.4713820000000  0.5000000000000  0.2110580000000 1.0   3.89
END
