TITL LFSO-LiFe3S4O-201028-163352-cd5071 0.1285 521.696694 -8.87231234E+003 -22.3387 24.0605 18 (P3) n - 1
REM
REM Run started: Thu, 29 Oct 2020 22:03:09 +0000 in /lustre/scratch/uccabz1/launch_tmp/launcher_2020-10-28-16-33-50-377282
REM CASTEP 20.1 from code version af48c487+ pr-geom-scf-spinfix Tue Jun 2 15:39:59 2020 +0100
REM Functional Perdew Burke Ernzerhof Relativity Koelling-Harmon Dispersion off
REM Cut-off 340.0000 eV Grid scale 1.7500 Gmax 16.5316 1/A FBSC none
REM MP grid 3 3 2 Offset 0.000 0.000 0.000 No. kpts 5 Spacing 0.07
REM Total runtime: 88109.7 s
REM Overall efficiency: 72.4167 %
REM
REM
REM
REM compiler GCC version 4.9.2
REM options -cpp -iprefix /lustre/shared/ucl/apps/gcc/4.9.2/bin/../lib/gcc/x86_64-unknown-linux-gnu/4.9.2/ -mtune=corei7 -march=x86-64 -g -Og
REM COMMAND_LINE
REM seed -1801103249 -1021976467 -805188623 -1878768468 2008936193 -1984126723 1533215505 -350319445 1246825762 -1656260422 -320306795 130181279
REM
REM S 3|1.8|5|6|7|30:31:32(qc=5)
REM O 2|1.5|12|13|15|20:21(qc=5)
REM Li 1|1.3|8|9|10|10U:20(qc=5)
REM Fe 3|2.2|2.0|1.0|8|9|10|40:41:32(qc=5)
REM Fe d:4.0 
REM
CELL 1.54180    7.09451    7.09451   11.96857   90.00000   90.00000  120.00000
LATT -1
SFAC Li O  S  Fe 
Li     1 -0.3333330000000  0.3333330000000  0.0654020000000 1.0   0.05
Li     1 -0.3333330000000  0.3333330000000 -0.4084230000000 1.0  -0.00
O      2  0.0000000000000 -0.0000000000000 -0.4102480000000 1.0   0.06
O      2  0.0000000000000 -0.0000000000000  0.3331200000000 1.0  -0.19
S      3  0.3458890000000  0.0640360000000  0.1515060000000 1.0  -0.14
S      3 -0.0640360000000  0.2818530000000  0.1515060000000 1.0  -0.14
S      3 -0.2818530000000 -0.3458890000000  0.1515060000000 1.0  -0.14
S      3 -0.2657230000000 -0.2571980000000 -0.4418700000000 1.0   0.22
S      3  0.2571980000000 -0.0085250000000 -0.4418700000000 1.0   0.22
S      3  0.0085250000000  0.2657230000000 -0.4418700000000 1.0   0.22
S      3 -0.3333330000000  0.3333330000000  0.3929370000000 1.0   0.02
S      3  0.3333330000000 -0.3333330000000 -0.0149030000000 1.0  -0.25
Fe     4 -0.3847860000000 -0.0778280000000  0.1032150000000 1.0  -3.79
Fe     4  0.0778280000000 -0.3069580000000  0.1032150000000 1.0  -3.79
Fe     4  0.3069580000000  0.3847860000000  0.1032150000000 1.0  -3.79
Fe     4  0.2982350000000  0.0865680000000  0.3641330000000 1.0  -3.63
Fe     4 -0.0865680000000  0.2116670000000  0.3641330000000 1.0  -3.63
Fe     4 -0.2116670000000 -0.2982350000000  0.3641330000000 1.0  -3.63
END
