TITL LFSO-Li2Fe3S2O2-201022-101036-942892 -0.3978 377.527440 -8.93489145E+003 21.9962 22.2551 18 (R3) n - 1
REM
REM Run started: Thu, 22 Oct 2020 19:01:36 +0100 in /lustre/scratch/uccabz1/launch_tmp/launcher_2020-10-22-09-10-34-749993
REM CASTEP 20.1 from code version af48c487+ pr-geom-scf-spinfix Tue Jun 2 15:39:59 2020 +0100
REM Functional Perdew Burke Ernzerhof Relativity Koelling-Harmon Dispersion off
REM Cut-off 340.0000 eV Grid scale 1.7500 Gmax 16.5316 1/A FBSC none
REM MP grid 3 3 3 Offset 0.000 0.000 0.000 No. kpts 6 Spacing 0.07
REM Total runtime: 36485.6 s
REM Overall efficiency: 93.25 %
REM
REM
REM
REM compiler GCC version 4.9.2
REM options -cpp -iprefix /lustre/shared/ucl/apps/gcc/4.9.2/bin/../lib/gcc/x86_64-unknown-linux-gnu/4.9.2/ -mtune=corei7 -march=x86-64 -g -Og
REM COMMAND_LINE
REM seed -1436323666 1579643304 1463944191 40767998 1913130579 -1285258520 -1867513397 709377154 1903244932 -1302252962 -1626343000 673535959
REM
REM S 3|1.8|5|6|7|30:31:32(qc=5)
REM O 2|1.5|12|13|15|20:21(qc=5)
REM Li 1|1.3|8|9|10|10U:20(qc=5)
REM Fe 3|2.2|2.0|1.0|8|9|10|40:41:32(qc=5)
REM Fe d:4.0 
REM
CELL 1.54180    7.61465    7.61465    7.61465  105.97325  105.97324  105.97324
LATT -1
SFAC Li O  S  Fe 
Li     1 -0.1540680000000 -0.3828530000000  0.2466160000000 1.0  -0.04
Li     1 -0.3828530000000  0.2466160000000 -0.1540680000000 1.0  -0.04
Li     1  0.2466160000000 -0.1540680000000 -0.3828530000000 1.0  -0.04
Li     1 -0.3518420000000 -0.3518420000000 -0.3518420000000 1.0   0.01
O      2 -0.1569140000000  0.3918530000000  0.0983530000000 1.0   0.16
O      2  0.3918530000000  0.0983530000000 -0.1569140000000 1.0   0.16
O      2  0.0983530000000 -0.1569140000000  0.3918530000000 1.0   0.16
O      2  0.4452830000000  0.4452830000000  0.4452830000000 1.0   0.09
S      3  0.1252070000000 -0.3105890000000 -0.1536230000000 1.0   0.08
S      3 -0.3105890000000 -0.1536230000000  0.1252070000000 1.0   0.08
S      3 -0.1536230000000  0.1252070000000 -0.3105890000000 1.0   0.08
S      3  0.2625710000000  0.2625710000000  0.2625710000000 1.0   0.21
Fe     4  0.1536750000000  0.1351970000000 -0.1596420000000 1.0   3.37
Fe     4  0.1351970000000 -0.1596420000000  0.1536750000000 1.0   3.37
Fe     4 -0.1596420000000  0.1536750000000  0.1351970000000 1.0   3.37
Fe     4 -0.0022140000000  0.0502360000000  0.4456830000000 1.0   3.66
Fe     4  0.0502360000000  0.4456830000000 -0.0022140000000 1.0   3.66
Fe     4  0.4456830000000 -0.0022140000000  0.0502360000000 1.0   3.66
END
