TITL LFSO-Li4Fe3S4O-201029-200036-a2fe0e -0.0708 832.081332 -1.00747589E+004 17.3510 19.6246 24 (P2/m) n - 1
REM
REM Run started: Fri, 30 Oct 2020 08:50:41 +0000 in /lustre/scratch/uccabz1/launch_tmp/launcher_2020-10-29-20-00-34-666918
REM CASTEP 20.1 from code version af48c487+ pr-geom-scf-spinfix Tue Jun 2 15:39:59 2020 +0100
REM Functional Perdew Burke Ernzerhof Relativity Koelling-Harmon Dispersion off
REM Cut-off 340.0000 eV Grid scale 1.7500 Gmax 16.5316 1/A FBSC none
REM MP grid 4 2 1 Offset 0.000 0.000 0.000 No. kpts 2 Spacing 0.07
REM Total runtime: 51071.2 s
REM Overall efficiency: 76.1667 %
REM
REM
REM
REM compiler GCC version 4.9.2
REM options -cpp -iprefix /lustre/shared/ucl/apps/gcc/4.9.2/bin/../lib/gcc/x86_64-unknown-linux-gnu/4.9.2/ -mtune=corei7 -march=x86-64 -g -Og
REM COMMAND_LINE
REM seed 800667723 1317672173 1892427944 1760863059 1689180205 1171636278 -660094436 1831422620 842369549 -353505034 949076459 1643689746
REM
REM S 3|1.8|5|6|7|30:31:32(qc=5)
REM O 2|1.5|12|13|15|20:21(qc=5)
REM Li 1|1.3|8|9|10|10U:20(qc=5)
REM Fe 3|2.2|2.0|1.0|8|9|10|40:41:32(qc=5)
REM Fe d:4.0 
REM
CELL 1.54180    4.53435   13.79676   13.85651   90.00000  106.28348   90.00000
LATT -1
SFAC Li O  S  Fe 
Li     1  0.2230910000000  0.2661960000000 -0.0997160000000 1.0  -0.08
Li     1 -0.2230910000000  0.2661960000000  0.0997160000000 1.0  -0.08
Li     1 -0.2230910000000 -0.2661960000000  0.0997160000000 1.0  -0.08
Li     1  0.2230910000000 -0.2661960000000 -0.0997160000000 1.0  -0.08
Li     1  0.4602160000000  0.3002310000000  0.3662130000000 1.0  -0.00
Li     1 -0.4602160000000  0.3002310000000 -0.3662130000000 1.0  -0.00
Li     1 -0.4602160000000 -0.3002310000000 -0.3662130000000 1.0  -0.00
Li     1  0.4602160000000 -0.3002310000000  0.3662130000000 1.0  -0.00
O      2  0.5000000000000 -0.3328520000000  0.0000000000000 1.0   0.06
O      2 -0.5000000000000  0.3328520000000  0.0000000000000 1.0   0.06
S      3 -0.1085230000000  0.3676340000000 -0.2186670000000 1.0  -0.09
S      3  0.1085230000000  0.3676340000000  0.2186670000000 1.0  -0.09
S      3  0.1085230000000 -0.3676340000000  0.2186670000000 1.0  -0.09
S      3 -0.1085230000000 -0.3676340000000 -0.2186670000000 1.0  -0.09
S      3  0.0028400000000  0.3601490000000 -0.4222970000000 1.0  -0.08
S      3 -0.0028400000000  0.3601490000000  0.4222970000000 1.0  -0.08
S      3 -0.0028400000000 -0.3601490000000  0.4222970000000 1.0  -0.08
S      3  0.0028400000000 -0.3601490000000 -0.4222970000000 1.0  -0.08
Fe     4 -0.2918330000000 -0.3986110000000 -0.0856540000000 1.0   3.26
Fe     4  0.2918330000000 -0.3986110000000  0.0856540000000 1.0   3.26
Fe     4  0.2918330000000  0.3986110000000  0.0856540000000 1.0   3.26
Fe     4 -0.2918330000000  0.3986110000000 -0.0856540000000 1.0   3.26
Fe     4  0.0025270000000 -0.5000000000000  0.3247100000000 1.0   2.62
Fe     4 -0.0025270000000 -0.5000000000000 -0.3247100000000 1.0   2.62
END
