TITL LFSO-Li5FeSO3-201026-145403-7c3a26 0.0156 340.169758 -6.95377099E+003 6.00043 7.78082 20 (Pma2) n - 1
REM
REM Run started: Mon, 26 Oct 2020 15:29:53 +0000 in /scratch/scratch/uccabz1/launch_tmp/launcher_2020-10-26-14-54-01-886971
REM CASTEP 19.11| from code version Version unavailable
REM Functional Perdew Burke Ernzerhof Relativity Koelling-Harmon Dispersion off
REM Cut-off 340.0000 eV Grid scale 1.7500 Gmax 16.5316 1/A FBSC none
REM MP grid 3 3 2 Offset 0.000 0.000 0.000 No. kpts 4 Spacing 0.07
REM Total runtime: 2367.78 s
REM Overall efficiency: 72.75 %
REM
REM
REM
REM compiler GCC version 4.9.2
REM options -cpp -iprefix /scratch/UCL/applications/gcc/4.9.2/bin/../lib/gcc/x86_64-unknown-linux-gnu/4.9.2/ -mtune=corei7 -march=x86-64 -g -O2
REM COMMAND_LINE
REM seed 1653424039 -159876797 1992236997 299256823 1073864878 -667395382 1059770003 -1995878727 -1749290821 -301334112 941622475 -509109278
REM
REM S 3|1.8|5|6|7|30:31:32(qc=5)
REM O 2|1.5|12|13|15|20:21(qc=5)
REM Li 1|1.3|8|9|10|10U:20(qc=5)
REM Fe 3|2.2|2.0|1.0|8|9|10|40:41:32(qc=5)
REM Fe d:4.0 
REM
CELL 1.54180    5.63178    6.58156    9.17744   90.00000   90.00000   90.00000
LATT -1
SFAC Li O  S  Fe 
Li     1  0.1974790000000 -0.0150600000000  0.3965300000000 1.0   0.02
Li     1  0.1974790000000  0.0150600000000 -0.3965300000000 1.0   0.02
Li     1  0.1974790000000  0.0150600000000 -0.1034700000000 1.0   0.02
Li     1  0.1974790000000 -0.0150600000000  0.1034700000000 1.0   0.02
Li     1 -0.3001210000000 -0.8162630000000 -0.0288940000000 1.0   0.00
Li     1 -0.3001210000000  0.8162630000000  0.0288940000000 1.0   0.00
Li     1 -0.3001210000000  0.8162630000000 -0.5288940000000 1.0   0.00
Li     1 -0.3001210000000 -0.8162630000000  0.5288940000000 1.0   0.00
Li     1  0.4507110000000 -0.4051690000000 -0.2500000000000 1.0  -0.05
Li     1  0.4507110000000  0.4051690000000  0.2500000000000 1.0  -0.05
O      2  0.0212800000000  0.2272000000000  0.0013630000000 1.0   0.04
O      2  0.0212800000000 -0.2272000000000 -0.0013630000000 1.0   0.04
O      2  0.0212800000000 -0.2272000000000 -0.4986370000000 1.0   0.04
O      2  0.0212800000000  0.2272000000000  0.4986370000000 1.0   0.04
O      2  0.4723140000000  0.0000000000000 -0.0000000000000 1.0  -0.22
O      2  0.4723140000000  0.0000000000000 -0.5000000000000 1.0  -0.22
S      3 -0.5158970000000  0.5000000000000 -0.0000000000000 1.0  -0.17
S      3 -0.5158970000000  0.5000000000000 -0.5000000000000 1.0  -0.17
Fe     4  0.0756410000000  0.5000000000000 -0.0000000000000 1.0   3.32
Fe     4  0.0756410000000  0.5000000000000 -0.5000000000000 1.0   3.32
END
