TITL LFSO-Li5FeSO3-201026-195424-aea661 0.0097 116.256861 -3.47872259E+003 3.43091 3.91423 10 (C2/m) n - 1
REM
REM Run started: Mon, 26 Oct 2020 20:57:27 +0000 in /lustre/scratch/uccabz1/launch_tmp/launcher_2020-10-26-19-54-22-956451
REM CASTEP 20.1 from code version af48c487+ pr-geom-scf-spinfix Tue Jun 2 15:39:59 2020 +0100
REM Functional Perdew Burke Ernzerhof Relativity Koelling-Harmon Dispersion off
REM Cut-off 340.0000 eV Grid scale 1.7500 Gmax 16.5316 1/A FBSC none
REM MP grid 5 5 2 Offset 0.000 0.000 0.000 No. kpts 15 Spacing 0.07
REM Total runtime: 4420.99 s
REM Overall efficiency: 84.5 %
REM
REM
REM
REM compiler GCC version 4.9.2
REM options -cpp -iprefix /lustre/shared/ucl/apps/gcc/4.9.2/bin/../lib/gcc/x86_64-unknown-linux-gnu/4.9.2/ -mtune=corei7 -march=x86-64 -g -Og
REM COMMAND_LINE
REM seed -789689052 106587822 619747478 -521566712 -353834973 918667372 463227469 966189971 -1445044492 -2047300585 -1168463497 -354579679
REM
REM S 3|1.8|5|6|7|30:31:32(qc=5)
REM O 2|1.5|12|13|15|20:21(qc=5)
REM Li 1|1.3|8|9|10|10U:20(qc=5)
REM Fe 3|2.2|2.0|1.0|8|9|10|40:41:32(qc=5)
REM Fe d:4.0 
REM
CELL 1.54180    3.78535    3.78535    9.97246   65.35032   65.35032   88.22420
LATT -1
SFAC Li O  S  Fe 
Li     1 -0.2814880000000  0.1930790000000  0.2577910000000 1.0  -0.01
Li     1  0.8069210000000  0.2814880000000 -0.2577910000000 1.0  -0.01
Li     1  0.2814880000000 -0.1930790000000 -0.2577910000000 1.0  -0.01
Li     1 -0.8069210000000 -0.2814880000000  0.2577910000000 1.0  -0.01
Li     1  0.0000000000000  0.0000000000000  0.5000000000000 1.0  -0.02
O      2 -0.7452140000000  0.2547860000000  0.2284520000000 1.0   0.03
O      2  0.7452140000000 -0.2547860000000 -0.2284520000000 1.0   0.03
O      2  0.0000000000000  0.0000000000000 -0.0000000000000 1.0  -0.11
S      3  0.5000000000000 -0.5000000000000 -0.5000000000000 1.0  -0.08
Fe     4 -0.5000000000000 -0.5000000000000 -0.0000000000000 1.0   3.63
END
