TITL LFSO-Li4Fe3S4O-201029-130619-b7b241 -0.0151 247.472571 -5.03810808E+003 10.0000 10.5966 12 (Cm) n - 1
REM
REM Run started: Thu, 29 Oct 2020 13:58:48 +0000 in /lustre/scratch/uccabz1/launch_tmp/launcher_2020-10-29-13-06-18-218950
REM CASTEP 20.1 from code version af48c487+ pr-geom-scf-spinfix Tue Jun 2 15:39:59 2020 +0100
REM Functional Perdew Burke Ernzerhof Relativity Koelling-Harmon Dispersion off
REM Cut-off 340.0000 eV Grid scale 1.7500 Gmax 16.5316 1/A FBSC none
REM MP grid 4 2 3 Offset 0.000 0.000 0.000 No. kpts 12 Spacing 0.07
REM Total runtime: 4233.39 s
REM Overall efficiency: 74.8333 %
REM
REM
REM
REM compiler GCC version 4.9.2
REM options -cpp -iprefix /lustre/shared/ucl/apps/gcc/4.9.2/bin/../lib/gcc/x86_64-unknown-linux-gnu/4.9.2/ -mtune=corei7 -march=x86-64 -g -Og
REM COMMAND_LINE
REM seed 1439700173 738184334 -435299118 -2000858639 -908797162 731023528 -543816810 210344213 -2120249285 1341166077 -2027083061 -2118657850
REM
REM S 3|1.8|5|6|7|30:31:32(qc=5)
REM O 2|1.5|12|13|15|20:21(qc=5)
REM Li 1|1.3|8|9|10|10U:20(qc=5)
REM Fe 3|2.2|2.0|1.0|8|9|10|40:41:32(qc=5)
REM Fe d:4.0 
REM
CELL 1.54180    4.34182    9.32704    7.79755  126.73216   99.65174   90.00000
LATT -1
SFAC Li O  S  Fe 
Li     1 -0.1944610000000 -0.1834950000000  0.2351830000000 1.0  -0.03
Li     1 -0.1944610000000  0.4186790000000  0.2351830000000 1.0  -0.03
Li     1  0.3558420000000  0.0360780000000  0.3483040000000 1.0  -0.02
Li     1  0.3558420000000  0.3122260000000  0.3483040000000 1.0  -0.02
O      2  0.1880720000000  0.2537760000000  0.5075530000000 1.0   0.14
S      3  0.2584230000000 -0.2721580000000  0.0929040000000 1.0  -0.08
S      3  0.2584230000000  0.3650620000000  0.0929040000000 1.0  -0.08
S      3 -0.3412870000000 -0.3986270000000 -0.4019790000000 1.0  -0.04
S      3 -0.3412870000000 -0.0033520000000 -0.4019790000000 1.0  -0.04
Fe     4  0.1844850000000  0.1850370000000 -0.2922220000000 1.0   3.82
Fe     4  0.1844850000000  0.5227410000000 -0.2922220000000 1.0   3.82
Fe     4  0.4257320000000 -0.3220650000000  0.3558690000000 1.0   2.57
END
