TITL LFSO-Li6FeS3O-201027-173213-dae74a -0.0004 232.393311 -3.41064881E+003 4.00000 4.15700 11 (P3) n - 1
REM
REM Run started: Tue, 27 Oct 2020 18:09:07 +0000 in /scratch/scratch/uccabz1/launch_tmp/launcher_2020-10-27-17-32-11-189743
REM CASTEP 19.11| from code version Version unavailable
REM Functional Perdew Burke Ernzerhof Relativity Koelling-Harmon Dispersion off
REM Cut-off 340.0000 eV Grid scale 1.7500 Gmax 16.5316 1/A FBSC none
REM MP grid 3 3 3 Offset 0.000 0.000 0.000 No. kpts 8 Spacing 0.07
REM Total runtime: 2623.19 s
REM Overall efficiency: 77.3333 %
REM
REM
REM
REM compiler GCC version 4.9.2
REM options -cpp -iprefix /scratch/UCL/applications/gcc/4.9.2/bin/../lib/gcc/x86_64-unknown-linux-gnu/4.9.2/ -mtune=corei7 -march=x86-64 -g -O2
REM COMMAND_LINE
REM seed -505025800 -992830289 1119319130 -899390295 248730571 -2000941247 1000196607 -881362753 -263039760 -1217722356 -759058324 -870378484
REM
REM S 3|1.8|5|6|7|30:31:32(qc=5)
REM O 2|1.5|12|13|15|20:21(qc=5)
REM Li 1|1.3|8|9|10|10U:20(qc=5)
REM Fe 3|2.2|2.0|1.0|8|9|10|40:41:32(qc=5)
REM Fe d:4.0 
REM
CELL 1.54180    6.88317    6.88317    5.66391   90.00000   90.00000  120.00000
LATT -1
SFAC Li O  S  Fe 
Li     1 -0.1300810000000  0.3237280000000 -0.4522610000000 1.0  -0.00
Li     1  0.4538090000000  0.1300810000000 -0.4522610000000 1.0  -0.00
Li     1 -0.3237280000000 -0.4538090000000 -0.4522610000000 1.0  -0.00
Li     1 -0.1293120000000  0.3243330000000  0.0755090000000 1.0  -0.00
Li     1  0.4536450000000  0.1293120000000  0.0755090000000 1.0  -0.00
Li     1 -0.3243330000000 -0.4536450000000  0.0755090000000 1.0  -0.00
O      2 -0.3333330000000  0.3333330000000  0.3006640000000 1.0   0.00
S      3 -0.0048480000000 -0.3493730000000 -0.2067590000000 1.0   0.11
S      3 -0.3445250000000  0.0048480000000 -0.2067590000000 1.0   0.11
S      3  0.3493730000000  0.3445250000000 -0.2067590000000 1.0   0.11
Fe     4  0.3333330000000 -0.3333330000000 -0.2067320000000 1.0   3.69
END
