TITL LFSO-Li2Fe4S4O-201024-195739-c9c154 -0.0641 628.722478 -1.10023498E+004 32.0000 32.5426 22 (I4) n - 1
REM
REM Run started: Wed, 28 Oct 2020 00:41:31 +0000 in /lustre/scratch/uccabz1/launch_tmp/launcher_2020-10-27-22-11-32-636225
REM CASTEP 20.1 from code version af48c487+ pr-geom-scf-spinfix Tue Jun 2 15:39:59 2020 +0100
REM Functional Perdew Burke Ernzerhof Relativity Koelling-Harmon Dispersion off
REM Cut-off 340.0000 eV Grid scale 1.7500 Gmax 16.5316 1/A FBSC none
REM MP grid 2 3 3 Offset 0.000 0.000 0.000 No. kpts 9 Spacing 0.07
REM Total runtime: 63124.7 s
REM Overall efficiency: 70.6667 %
REM
REM
REM
REM compiler GCC version 4.9.2
REM options -cpp -iprefix /lustre/shared/ucl/apps/gcc/4.9.2/bin/../lib/gcc/x86_64-unknown-linux-gnu/4.9.2/ -mtune=corei7 -march=x86-64 -g -Og
REM COMMAND_LINE
REM seed 882874587 1099620709 509041341 -1595527339 1101717330 407261067 970333776 -1484155262 -2144748238 -1733898144 -1814182436 -1366336194
REM
REM S 3|1.8|5|6|7|30:31:32(qc=5)
REM O 2|1.5|12|13|15|20:21(qc=5)
REM Li 1|1.3|8|9|10|10U:20(qc=5)
REM Fe 3|2.2|2.0|1.0|8|9|10|40:41:32(qc=5)
REM Fe d:4.0 
REM
CELL 1.54180   13.84472    9.66083    9.66083   59.10748   44.23047   44.23047
LATT -1
SFAC Li O  S  Fe 
Li     1 -0.0114670000000 -0.4978880000000 -0.2800460000000 1.0  -0.02
Li     1  0.2105980000000  0.4978880000000  0.2800460000000 1.0  -0.02
Li     1  0.4906450000000 -0.2800460000000  0.4978880000000 1.0  -0.02
Li     1 -0.2915140000000  0.2800460000000 -0.4978880000000 1.0  -0.02
O      2  0.1826650000000  0.5000000000000  0.5000000000000 1.0   0.20
O      2 -0.3173350000000 -0.5000000000000  0.5000000000000 1.0   0.20
S      3 -0.4452880000000 -0.0626360000000  0.4238170000000 1.0   0.17
S      3 -0.0841070000000  0.0626360000000 -0.4238170000000 1.0   0.17
S      3 -0.5079240000000  0.4238170000000  0.0626360000000 1.0   0.17
S      3 -0.0214710000000 -0.4238170000000 -0.0626360000000 1.0   0.17
S      3  0.4994360000000  0.2418430000000 -0.3913580000000 1.0   0.12
S      3  0.3499210000000 -0.2418430000000  0.3913580000000 1.0   0.12
S      3  0.7412790000000 -0.3913580000000 -0.2418430000000 1.0   0.12
S      3  0.1080770000000  0.3913580000000  0.2418430000000 1.0   0.12
Fe     4  0.1045510000000 -0.2870220000000 -0.3921410000000 1.0   3.86
Fe     4  0.4253880000000  0.2870220000000  0.3921410000000 1.0   3.86
Fe     4 -0.1824710000000 -0.3921410000000  0.2870220000000 1.0   3.86
Fe     4 -0.2875900000000  0.3921410000000 -0.2870220000000 1.0   3.86
Fe     4  0.2296960000000  0.3697040000000 -0.0877640000000 1.0   3.77
Fe     4 -0.4883640000000 -0.3697040000000  0.0877640000000 1.0   3.77
Fe     4 -0.4006000000000 -0.0877640000000 -0.3697040000000 1.0   3.77
Fe     4  0.1419320000000  0.0877640000000  0.3697040000000 1.0   3.77
END
