TITL LFSO-Li2Fe2S2O-201023-212352-e61e79 0.0385 138.977849 -3.16879838E+003 8.00000 8.05387 7 (C222) n - 1
REM
REM Run started: Fri, 23 Oct 2020 22:52:10 +0100 in /lustre/scratch/uccabz1/launch_tmp/launcher_2020-10-23-20-23-50-853349
REM CASTEP 20.1 from code version af48c487+ pr-geom-scf-spinfix Tue Jun 2 15:39:59 2020 +0100
REM Functional Perdew Burke Ernzerhof Relativity Koelling-Harmon Dispersion off
REM Cut-off 340.0000 eV Grid scale 1.7500 Gmax 16.5316 1/A FBSC none
REM MP grid 4 7 2 Offset 0.000 0.000 0.000 No. kpts 14 Spacing 0.07
REM Total runtime: 5535.51 s
REM Overall efficiency: 82.8889 %
REM
REM
REM
REM compiler GCC version 4.9.2
REM options -cpp -iprefix /lustre/shared/ucl/apps/gcc/4.9.2/bin/../lib/gcc/x86_64-unknown-linux-gnu/4.9.2/ -mtune=corei7 -march=x86-64 -g -Og
REM COMMAND_LINE
REM seed -1756319424 245248445 1478746134 1696912756 -1668020577 707928815 -1731219783 -1346684745 293484863 56768638 -177437633 -1174439861
REM
REM S 3|1.8|5|6|7|30:31:32(qc=5)
REM O 2|1.5|12|13|15|20:21(qc=5)
REM Li 1|1.3|8|9|10|10U:20(qc=5)
REM Fe 3|2.2|2.0|1.0|8|9|10|40:41:32(qc=5)
REM Fe d:4.0 
REM
CELL 1.54180    6.16879    3.83271    9.90242   90.00000   90.00000  143.58669
LATT -1
SFAC Li O  S  Fe 
Li     1  0.5000000000000  0.5000000000000 -0.0845810000000 1.0  -0.01
Li     1  0.0000000000000  0.5000000000000  0.0845810000000 1.0  -0.01
O      2  0.0000000000000  0.0000000000000  0.5000000000000 1.0   0.31
S      3 -0.5000000000000 -0.5000000000000  0.1651950000000 1.0   0.06
S      3  0.0000000000000  0.5000000000000 -0.1651950000000 1.0   0.06
Fe     4  0.0000000000000  0.0000000000000  0.3170190000000 1.0   3.80
Fe     4  0.0000000000000  0.0000000000000 -0.3170190000000 1.0   3.80
END
