TITL LFSO-Li2Fe4S4O-201025-000417-e66b33 0.0546 705.723473 -1.10007604E+004 31.9999 32.5686 22 (Cmc21) n - 1
REM
REM Run started: Sun, 25 Oct 2020 11:54:09 +0000 in /lustre/scratch/uccabz1/launch_tmp/launcher_2020-10-24-23-04-14-149839
REM CASTEP 20.1 from code version af48c487+ pr-geom-scf-spinfix Tue Jun 2 15:39:59 2020 +0100
REM Functional Perdew Burke Ernzerhof Relativity Koelling-Harmon Dispersion off
REM Cut-off 340.0000 eV Grid scale 1.7500 Gmax 16.5316 1/A FBSC none
REM MP grid 2 2 2 Offset 0.000 0.000 0.000 No. kpts 2 Spacing 0.07
REM Total runtime: 46321.2 s
REM Overall efficiency: 81.2727 %
REM
REM
REM
REM compiler GCC version 4.9.2
REM options -cpp -iprefix /lustre/shared/ucl/apps/gcc/4.9.2/bin/../lib/gcc/x86_64-unknown-linux-gnu/4.9.2/ -mtune=corei7 -march=x86-64 -g -Og
REM COMMAND_LINE
REM seed -1649083853 1708233866 -1925671046 201273616 -256456278 1836235383 117433883 -99011718 2040406677 -1720833033 814827647 1521002076
REM
REM S 3|1.8|5|6|7|30:31:32(qc=5)
REM O 2|1.5|12|13|15|20:21(qc=5)
REM Li 1|1.3|8|9|10|10U:20(qc=5)
REM Fe 3|2.2|2.0|1.0|8|9|10|40:41:32(qc=5)
REM Fe d:4.0 
REM
CELL 1.54180    7.35641   12.98122    9.83576  131.29212   90.00000   90.00000
LATT -1
SFAC Li O  S  Fe 
Li     1 -0.3335820000000  0.1049710000000 -0.1283220000000 1.0  -0.00
Li     1  0.1664180000000 -0.1049710000000  0.1283220000000 1.0  -0.00
Li     1  0.1664180000000  0.2332920000000  0.1283220000000 1.0  -0.00
Li     1 -0.3335820000000 -0.2332920000000 -0.1283220000000 1.0  -0.00
O      2 -0.0677180000000  0.4503880000000 -0.0992240000000 1.0   0.29
O      2 -0.5677180000000 -0.4503880000000  0.0992240000000 1.0   0.29
S      3  0.3607870000000  0.1603720000000 -0.1164800000000 1.0   0.12
S      3 -0.1392130000000 -0.1603720000000  0.1164800000000 1.0   0.12
S      3 -0.1392130000000  0.2768520000000  0.1164800000000 1.0   0.12
S      3  0.3607870000000 -0.2768520000000 -0.1164800000000 1.0   0.12
S      3  0.3782940000000 -0.0640870000000  0.3560310000000 1.0   0.11
S      3 -0.1217060000000  0.0640870000000 -0.3560310000000 1.0   0.11
S      3 -0.1217060000000 -0.4201180000000 -0.3560310000000 1.0   0.11
S      3  0.3782940000000  0.4201180000000  0.3560310000000 1.0   0.11
Fe     4 -0.1084230000000  0.3139250000000 -0.0930590000000 1.0   3.79
Fe     4  0.3915770000000 -0.3139250000000  0.0930590000000 1.0   3.79
Fe     4  0.3915770000000  0.4069840000000  0.0930590000000 1.0   3.79
Fe     4 -0.1084230000000 -0.4069840000000 -0.0930590000000 1.0   3.79
Fe     4  0.1979830000000  0.0451110000000 -0.3825170000000 1.0   3.85
Fe     4 -0.3020170000000 -0.0451110000000  0.3825170000000 1.0   3.85
Fe     4 -0.3020170000000 -0.5723720000000  0.3825170000000 1.0   3.85
Fe     4  0.1979830000000  0.5723720000000 -0.3825170000000 1.0   3.85
END
