TITL LFSO-Li5FeSO3-201026-163518-dbd0fd -0.0163 129.721145 -3.47522933E+003 3.99607 4.07063 10 (P2) n - 1
REM
REM Run started: Mon, 26 Oct 2020 17:13:17 +0000 in /scratch/scratch/uccabz1/launch_tmp/launcher_2020-10-26-16-35-17-004889
REM CASTEP 19.11| from code version Version unavailable
REM Functional Perdew Burke Ernzerhof Relativity Koelling-Harmon Dispersion off
REM Cut-off 340.0000 eV Grid scale 1.7500 Gmax 16.5316 1/A FBSC none
REM MP grid 5 4 2 Offset 0.000 0.000 0.000 No. kpts 10 Spacing 0.07
REM Total runtime: 2391.33 s
REM Overall efficiency: 80 %
REM
REM
REM
REM compiler GCC version 4.9.2
REM options -cpp -iprefix /scratch/UCL/applications/gcc/4.9.2/bin/../lib/gcc/x86_64-unknown-linux-gnu/4.9.2/ -mtune=corei7 -march=x86-64 -g -O2
REM COMMAND_LINE
REM seed -1220719010 -873687897 2004253796 -185270029 -66295352 1022679863 -412845417 716535995 -1800949558 -652231911 -808471609 1105963051
REM
REM S 3|1.8|5|6|7|30:31:32(qc=5)
REM O 2|1.5|12|13|15|20:21(qc=5)
REM Li 1|1.3|8|9|10|10U:20(qc=5)
REM Fe 3|2.2|2.0|1.0|8|9|10|40:41:32(qc=5)
REM Fe d:4.0 
REM
CELL 1.54180    3.62628    4.72474    9.51128   90.00000   90.00000  127.24676
LATT -1
SFAC Li O  S  Fe 
Li     1  0.0460410000000  0.2737030000000  0.2123520000000 1.0  -0.00
Li     1 -0.0460410000000 -0.2737030000000  0.2123520000000 1.0  -0.00
Li     1 -0.0938530000000  0.2297690000000 -0.0084780000000 1.0   0.00
Li     1  0.0938530000000 -0.2297690000000 -0.0084780000000 1.0   0.00
Li     1  0.5000000000000 -0.5000000000000 -0.1961730000000 1.0  -0.10
O      2 -0.5050510000000  0.2446190000000  0.1141440000000 1.0   0.00
O      2  0.5050510000000 -0.2446190000000  0.1141440000000 1.0   0.00
O      2  0.0000000000000 -0.5000000000000 -0.1793450000000 1.0   0.06
S      3  0.5000000000000 -0.5000000000000  0.4572580000000 1.0   0.08
Fe     4  0.0000000000000  0.0000000000000 -0.4174140000000 1.0   3.95
END
