TITL LFSO-Li4Fe3S3O2-201029-100748-066b33 0.0204 294.796977 -5.17204716E+003 10.0000 10.5489 12 (Pm) n - 1
REM
REM Run started: Thu, 29 Oct 2020 12:43:58 +0000 in /lustre/scratch/uccabz1/launch_tmp/launcher_2020-10-29-10-07-44-255915
REM CASTEP 20.1 from code version af48c487+ pr-geom-scf-spinfix Tue Jun 2 15:39:59 2020 +0100
REM Functional Perdew Burke Ernzerhof Relativity Koelling-Harmon Dispersion off
REM Cut-off 340.0000 eV Grid scale 1.7500 Gmax 16.5316 1/A FBSC none
REM MP grid 4 3 2 Offset 0.000 0.000 0.000 No. kpts 6 Spacing 0.07
REM Total runtime: 10691.7 s
REM Overall efficiency: 76 %
REM
REM
REM
REM compiler GCC version 4.9.2
REM options -cpp -iprefix /lustre/shared/ucl/apps/gcc/4.9.2/bin/../lib/gcc/x86_64-unknown-linux-gnu/4.9.2/ -mtune=corei7 -march=x86-64 -g -Og
REM COMMAND_LINE
REM seed -1792758425 -1922025420 -1705199301 1871121356 -1275510377 -7868444 -2140689087 -1331210693 726161043 1172552301 1679296507 570564278
REM
REM S 3|1.8|5|6|7|30:31:32(qc=5)
REM O 2|1.5|12|13|15|20:21(qc=5)
REM Li 1|1.3|8|9|10|10U:20(qc=5)
REM Fe 3|2.2|2.0|1.0|8|9|10|40:41:32(qc=5)
REM Fe d:4.0 
REM
CELL 1.54180    6.30501    7.24460    8.77700   90.00000   90.00000   47.33432
LATT -1
SFAC Li O  S  Fe 
Li     1 -0.1295180000000 -0.4256440000000 -0.3116850000000 1.0  -0.03
Li     1 -0.1295180000000 -0.4256440000000  0.3116850000000 1.0  -0.03
Li     1 -0.1444640000000  0.0824400000000  0.3128660000000 1.0  -0.05
Li     1 -0.1444640000000  0.0824400000000 -0.3128660000000 1.0  -0.05
O      2  0.0146070000000 -0.2596480000000  0.3244220000000 1.0   0.10
O      2  0.0146070000000 -0.2596480000000 -0.3244220000000 1.0   0.10
S      3 -0.2245410000000  0.3730120000000  0.1236580000000 1.0  -0.00
S      3 -0.2245410000000  0.3730120000000 -0.1236580000000 1.0  -0.00
S      3 -0.2110010000000  0.3702910000000 -0.5000000000000 1.0   0.04
Fe     4  0.3116990000000 -0.4030140000000  0.1814080000000 1.0   3.16
Fe     4  0.3116990000000 -0.4030140000000 -0.1814080000000 1.0   3.16
Fe     4  0.2890430000000 -0.3867890000000  0.5000000000000 1.0   3.62
END
