TITL LFSO-Li2Fe3S2O2-201022-130520-884f7c -0.0384 293.259456 -4.46864294E+003 10.0000 10.5774 9 (P2) n - 1
REM
REM Run started: Thu, 22 Oct 2020 16:14:34 +0100 in /lustre/scratch/uccabz1/launch_tmp/launcher_2020-10-22-12-05-18-744685
REM CASTEP 20.1 from code version af48c487+ pr-geom-scf-spinfix Tue Jun 2 15:39:59 2020 +0100
REM Functional Perdew Burke Ernzerhof Relativity Koelling-Harmon Dispersion off
REM Cut-off 340.0000 eV Grid scale 1.7500 Gmax 16.5316 1/A FBSC none
REM MP grid 5 2 3 Offset 0.000 0.000 0.000 No. kpts 10 Spacing 0.07
REM Total runtime: 15091.3 s
REM Overall efficiency: 77.0833 %
REM
REM
REM
REM compiler GCC version 4.9.2
REM options -cpp -iprefix /lustre/shared/ucl/apps/gcc/4.9.2/bin/../lib/gcc/x86_64-unknown-linux-gnu/4.9.2/ -mtune=corei7 -march=x86-64 -g -Og
REM COMMAND_LINE
REM seed 2017375385 -361758534 783202409 -1262092929 1323307931 741983905 796864558 -1396913659 1634779720 -963397224 629101605 -2038450565
REM
REM S 3|1.8|5|6|7|30:31:32(qc=5)
REM O 2|1.5|12|13|15|20:21(qc=5)
REM Li 1|1.3|8|9|10|10U:20(qc=5)
REM Fe 3|2.2|2.0|1.0|8|9|10|40:41:32(qc=5)
REM Fe d:4.0 
REM
CELL 1.54180    3.11817   14.15401    6.73141   90.00000   90.00000   99.20820
LATT -1
SFAC Li O  S  Fe 
Li     1 -0.1969140000000  0.2102340000000 -0.4010240000000 1.0  -0.01
Li     1  0.1969140000000 -0.2102340000000 -0.4010240000000 1.0  -0.01
O      2 -0.3070280000000 -0.2094090000000  0.4073370000000 1.0   0.18
O      2  0.3070280000000  0.2094090000000  0.4073370000000 1.0   0.18
S      3  0.4105090000000 -0.1212620000000 -0.0812150000000 1.0  -0.11
S      3 -0.4105090000000  0.1212620000000 -0.0812150000000 1.0  -0.11
Fe     4  0.1980890000000 -0.1868000000000  0.2293770000000 1.0   3.76
Fe     4 -0.1980890000000  0.1868000000000  0.2293770000000 1.0   3.76
Fe     4  0.0000000000000  0.0000000000000 -0.0841080000000 1.0   2.34
END
