TITL LFSO-Li6FeSO3-201028-060541-770d80 0.0222 294.638073 -7.35851775E+003 8.00000 8.22983 22 (R3) n - 1
REM
REM Run started: Wed, 28 Oct 2020 07:23:48 +0000 in /lustre/scratch/uccabz1/launch_tmp/launcher_2020-10-28-06-05-39-877189
REM CASTEP 20.1 from code version af48c487+ pr-geom-scf-spinfix Tue Jun 2 15:39:59 2020 +0100
REM Functional Perdew Burke Ernzerhof Relativity Koelling-Harmon Dispersion off
REM Cut-off 340.0000 eV Grid scale 1.7500 Gmax 16.5316 1/A FBSC none
REM MP grid 3 3 3 Offset 0.000 0.000 0.000 No. kpts 6 Spacing 0.07
REM Total runtime: 5062.35 s
REM Overall efficiency: 72.7778 %
REM
REM
REM
REM compiler GCC version 4.9.2
REM options -cpp -iprefix /lustre/shared/ucl/apps/gcc/4.9.2/bin/../lib/gcc/x86_64-unknown-linux-gnu/4.9.2/ -mtune=corei7 -march=x86-64 -g -Og
REM COMMAND_LINE
REM seed -89910171 -462112104 373000066 499904223 586087098 308973550 -948317596 1485786614 1340706773 -113873573 -512415310 -863256541
REM
REM S 3|1.8|5|6|7|30:31:32(qc=5)
REM O 2|1.5|12|13|15|20:21(qc=5)
REM Li 1|1.3|8|9|10|10U:20(qc=5)
REM Fe 3|2.2|2.0|1.0|8|9|10|40:41:32(qc=5)
REM Fe d:4.0 
REM
CELL 1.54180    6.91196    6.91196    6.91196   73.12387   73.12387   73.12387
LATT -1
SFAC Li O  S  Fe 
Li     1  0.3950360000000  0.0524540000000 -0.0725510000000 1.0  -0.00
Li     1 -0.0725510000000  0.3950360000000  0.0524540000000 1.0  -0.00
Li     1  0.0524540000000 -0.0725510000000  0.3950360000000 1.0  -0.00
Li     1  0.2153290000000  0.6012540000000  0.2198440000000 1.0  -0.03
Li     1  0.2198440000000  0.2153290000000  0.6012540000000 1.0  -0.03
Li     1  0.6012540000000  0.2198440000000  0.2153290000000 1.0  -0.03
Li     1 -0.2766450000000 -0.2491820000000  0.1960000000000 1.0  -0.04
Li     1  0.1960000000000 -0.2766450000000 -0.2491820000000 1.0  -0.04
Li     1 -0.2491820000000  0.1960000000000 -0.2766450000000 1.0  -0.04
Li     1 -0.4550990000000 -0.3530660000000 -0.0300780000000 1.0   0.01
Li     1 -0.0300780000000 -0.4550990000000 -0.3530660000000 1.0   0.01
Li     1 -0.3530660000000 -0.0300780000000 -0.4550990000000 1.0   0.01
O      2 -0.1929830000000 -0.0456980000000  0.2751820000000 1.0   0.09
O      2  0.2751820000000 -0.1929830000000 -0.0456980000000 1.0   0.09
O      2 -0.0456980000000  0.2751820000000 -0.1929830000000 1.0   0.09
O      2 -0.3454020000000  0.4915420000000  0.2057400000000 1.0   0.13
O      2  0.2057400000000 -0.3454020000000  0.4915420000000 1.0   0.13
O      2  0.4915420000000  0.2057400000000 -0.3454020000000 1.0   0.13
S      3  0.2339320000000  0.2339320000000  0.2339320000000 1.0   0.00
S      3 -0.1823850000000 -0.1823850000000 -0.1823850000000 1.0   0.02
Fe     4  0.4719330000000  0.4719330000000  0.4719330000000 1.0   3.71
Fe     4  0.0027070000000  0.0027070000000  0.0027070000000 1.0   3.80
END
