TITL LFSO-Li3FeS2O-201022-200855-a9dc72 -0.0426 248.013236 -5.01417696E+003 7.80864 7.99731 14 (Cm) n - 1
REM
REM Run started: Fri, 23 Oct 2020 03:01:15 +0100 in /lustre/scratch/uccabz1/launch_tmp/launcher_2020-10-22-19-08-54-103515
REM CASTEP 20.1 from code version af48c487+ pr-geom-scf-spinfix Tue Jun 2 15:39:59 2020 +0100
REM Functional Perdew Burke Ernzerhof Relativity Koelling-Harmon Dispersion off
REM Cut-off 340.0000 eV Grid scale 1.7500 Gmax 16.5316 1/A FBSC none
REM MP grid 4 3 3 Offset 0.000 0.000 0.000 No. kpts 12 Spacing 0.07
REM Total runtime: 26444.9 s
REM Overall efficiency: 96.9231 %
REM
REM
REM
REM compiler GCC version 4.9.2
REM options -cpp -iprefix /lustre/shared/ucl/apps/gcc/4.9.2/bin/../lib/gcc/x86_64-unknown-linux-gnu/4.9.2/ -mtune=corei7 -march=x86-64 -g -Og
REM COMMAND_LINE
REM seed -446836838 -827691656 -1423873300 415063552 420872543 -570735827 -1457573364 -958703802 646574748 -1514102549 1194804490 1632626343
REM
REM S 3|1.8|5|6|7|30:31:32(qc=5)
REM O 2|1.5|12|13|15|20:21(qc=5)
REM Li 1|1.3|8|9|10|10U:20(qc=5)
REM Fe 3|2.2|2.0|1.0|8|9|10|40:41:32(qc=5)
REM Fe d:4.0 
REM
CELL 1.54180    6.37749    8.11784    8.11784   81.90513   52.66894   52.66894
LATT -1
SFAC Li O  S  Fe 
Li     1  0.2787180000000  0.3429910000000 -0.3886290000000 1.0  -0.02
Li     1  0.2787180000000 -0.3886290000000  0.3429910000000 1.0  -0.02
Li     1  0.1783460000000  0.1399700000000 -0.1220710000000 1.0  -0.00
Li     1  0.1783460000000 -0.1220710000000  0.1399700000000 1.0  -0.00
Li     1 -0.6883200000000 -0.0054980000000  0.3116340000000 1.0  -0.03
Li     1 -0.6883200000000  0.3116340000000 -0.0054980000000 1.0  -0.03
O      2  0.2985850000000 -0.4378150000000 -0.4378150000000 1.0   0.15
O      2  0.3184930000000  0.0524660000000  0.0524660000000 1.0   0.08
S      3 -0.1621930000000 -0.2973490000000  0.2955730000000 1.0   0.03
S      3 -0.1621930000000  0.2955730000000 -0.2973490000000 1.0   0.03
S      3 -0.2203840000000  0.5401170000000  0.0069950000000 1.0   0.05
S      3 -0.2203840000000  0.0069950000000  0.5401170000000 1.0   0.05
Fe     4 -0.1952620000000 -0.1903730000000 -0.1903730000000 1.0   3.70
Fe     4  0.6476940000000 -0.4716210000000 -0.4716210000000 1.0   3.80
END
