TITL LFSO-Li2Fe4S3O2-201026-092747-061c06 -0.0015 201.496562 -5.63588259E+003 16.0000 16.1506 11 (P3) n - 1
REM
REM Run started: Mon, 26 Oct 2020 11:47:44 +0000 in /scratch/scratch/uccabz1/launch_tmp/launcher_2020-10-26-09-27-45-439890
REM CASTEP 19.11| from code version Version unavailable
REM Functional Perdew Burke Ernzerhof Relativity Koelling-Harmon Dispersion off
REM Cut-off 340.0000 eV Grid scale 1.7500 Gmax 16.5316 1/A FBSC none
REM MP grid 3 3 4 Offset 0.000 0.000 0.000 No. kpts 10 Spacing 0.07
REM Total runtime: 8432.18 s
REM Overall efficiency: 80 %
REM
REM
REM
REM compiler GCC version 4.9.2
REM options -cpp -iprefix /scratch/UCL/applications/gcc/4.9.2/bin/../lib/gcc/x86_64-unknown-linux-gnu/4.9.2/ -mtune=corei7 -march=x86-64 -g -O2
REM COMMAND_LINE
REM seed 474999162 -234947892 2112395023 -2071692304 -759899422 1994843767 -1882325097 -1241942118 1369307085 -1899592912 -368796933 -2076545770
REM
REM S 3|1.8|5|6|7|30:31:32(qc=5)
REM O 2|1.5|12|13|15|20:21(qc=5)
REM Li 1|1.3|8|9|10|10U:20(qc=5)
REM Fe 3|2.2|2.0|1.0|8|9|10|40:41:32(qc=5)
REM Fe d:4.0 
REM
CELL 1.54180    6.99639    6.99639    4.75323   90.00000   90.00000  120.00000
LATT -1
SFAC Li O  S  Fe 
Li     1 -0.3333330000000  0.3333330000000 -0.7695590000000 1.0  -0.04
Li     1  0.0000000000000 -0.0000000000000  0.1088110000000 1.0  -0.04
O      2 -0.3333330000000  0.3333330000000 -0.3495460000000 1.0   0.15
O      2  0.0000000000000 -0.0000000000000  0.6902110000000 1.0   0.15
S      3  0.3332100000000  0.3397660000000  0.1700600000000 1.0   0.14
S      3 -0.3397660000000 -0.0065560000000  0.1700600000000 1.0   0.14
S      3  0.0065560000000 -0.3332100000000  0.1700600000000 1.0   0.14
Fe     4  0.3334820000000  0.2166920000000 -0.3327030000000 1.0   3.88
Fe     4 -0.2166920000000  0.1167900000000 -0.3327030000000 1.0   3.88
Fe     4 -0.1167900000000 -0.3334820000000 -0.3327030000000 1.0   3.88
Fe     4  0.3333330000000 -0.3333330000000  0.1828370000000 1.0   3.75
END
