TITL LFSO-Li6FeS3O-201027-111541-ea6aa8 0.3935 483.903541 -6.81989445E+003 -8.17209 8.84844 22 (P3) n - 1
REM
REM Run started: Wed, 28 Oct 2020 08:29:48 +0000 in /lustre/scratch/uccabz1/launch_tmp/launcher_2020-10-27-11-15-40-207366
REM CASTEP 20.1 from code version af48c487+ pr-geom-scf-spinfix Tue Jun 2 15:39:59 2020 +0100
REM Functional Perdew Burke Ernzerhof Relativity Koelling-Harmon Dispersion off
REM Cut-off 340.0000 eV Grid scale 1.7500 Gmax 16.5316 1/A FBSC none
REM MP grid 3 3 2 Offset 0.000 0.000 0.000 No. kpts 5 Spacing 0.07
REM Total runtime: 79003.3 s
REM Overall efficiency: 75 %
REM
REM
REM
REM compiler GCC version 4.9.2
REM options -cpp -iprefix /lustre/shared/ucl/apps/gcc/4.9.2/bin/../lib/gcc/x86_64-unknown-linux-gnu/4.9.2/ -mtune=corei7 -march=x86-64 -g -Og
REM COMMAND_LINE
REM seed 617655560 2076628002 -1632896479 -880491080 -132099683 -1770554750 -1694124506 6922498 305879927 56122223 -2131593796 855081234
REM
REM S 3|1.8|5|6|7|30:31:32(qc=5)
REM O 2|1.5|12|13|15|20:21(qc=5)
REM Li 1|1.3|8|9|10|10U:20(qc=5)
REM Fe 3|2.2|2.0|1.0|8|9|10|40:41:32(qc=5)
REM Fe d:4.0 
REM
CELL 1.54180    7.24172    7.24172   10.65478   90.00000   90.00000  120.00000
LATT -1
SFAC Li O  S  Fe 
Li     1  0.0814430000000  0.5154640000000  0.0005190000000 1.0   0.04
Li     1  0.4340210000000 -0.0814430000000  0.0005190000000 1.0   0.04
Li     1 -0.5154640000000 -0.4340210000000  0.0005190000000 1.0   0.04
Li     1 -0.1737930000000 -0.3957140000000  0.2812010000000 1.0   0.09
Li     1 -0.2219220000000  0.1737930000000  0.2812010000000 1.0   0.09
Li     1  0.3957140000000  0.2219220000000  0.2812010000000 1.0   0.09
Li     1  0.0252470000000  0.3282460000000 -0.4482510000000 1.0   0.01
Li     1  0.3029990000000 -0.0252470000000 -0.4482510000000 1.0   0.01
Li     1 -0.3282460000000 -0.3029990000000 -0.4482510000000 1.0   0.01
Li     1  0.2739560000000  0.3899560000000 -0.2034230000000 1.0  -0.00
Li     1  0.1160010000000 -0.2739560000000 -0.2034230000000 1.0  -0.00
Li     1 -0.3899560000000 -0.1160010000000 -0.2034230000000 1.0  -0.00
O      2 -0.3333330000000  0.3333330000000  0.2416160000000 1.0  -0.15
O      2  0.3333330000000 -0.3333330000000 -0.1076430000000 1.0  -0.01
S      3 -0.1393670000000 -0.3214380000000 -0.0071250000000 1.0  -0.30
S      3 -0.1820700000000  0.1393670000000 -0.0071250000000 1.0  -0.30
S      3  0.3214380000000  0.1820700000000 -0.0071250000000 1.0  -0.30
S      3  0.3536480000000  0.3343010000000  0.5548220000000 1.0  -0.07
S      3 -0.0193470000000 -0.3536480000000  0.5548220000000 1.0  -0.07
S      3 -0.3343010000000  0.0193470000000  0.5548220000000 1.0  -0.07
Fe     4 -0.3333330000000  0.3333330000000  0.0569170000000 1.0  -3.86
Fe     4 -0.3333330000000  0.3333330000000 -0.3992540000000 1.0  -3.46
END
