TITL LFSO-Li4Fe3S3O2-201030-074317-c3299e -0.0689 435.332134 -1.03475230E+004 -24.0000 24.3276 24 (R3) n - 1
REM
REM Run started: Fri, 30 Oct 2020 16:40:06 +0000 in /lustre/scratch/uccabz1/launch_tmp/launcher_2020-10-30-07-43-15-586271
REM CASTEP 20.1 from code version af48c487+ pr-geom-scf-spinfix Tue Jun 2 15:39:59 2020 +0100
REM Functional Perdew Burke Ernzerhof Relativity Koelling-Harmon Dispersion off
REM Cut-off 340.0000 eV Grid scale 1.7500 Gmax 16.5316 1/A FBSC none
REM MP grid 3 3 3 Offset 0.000 0.000 0.000 No. kpts 6 Spacing 0.07
REM Total runtime: 35573.6 s
REM Overall efficiency: 70.75 %
REM
REM
REM
REM compiler GCC version 4.9.2
REM options -cpp -iprefix /lustre/shared/ucl/apps/gcc/4.9.2/bin/../lib/gcc/x86_64-unknown-linux-gnu/4.9.2/ -mtune=corei7 -march=x86-64 -g -Og
REM COMMAND_LINE
REM seed 1007723148 -418765503 1822544869 -876349531 -1332217934 1442322302 -1887331774 -4334327 721241009 -1813288639 -1575306086 664345422
REM
REM S 3|1.8|5|6|7|30:31:32(qc=5)
REM O 2|1.5|12|13|15|20:21(qc=5)
REM Li 1|1.3|8|9|10|10U:20(qc=5)
REM Fe 3|2.2|2.0|1.0|8|9|10|40:41:32(qc=5)
REM Fe d:4.0 
REM
CELL 1.54180   11.19007   11.19007   11.19007   36.10842   36.10842   36.10842
LATT -1
SFAC Li O  S  Fe 
Li     1  0.1980610000000 -0.5212500000000 -0.3327120000000 1.0   0.03
Li     1 -0.5212500000000 -0.3327120000000  0.1980610000000 1.0   0.03
Li     1 -0.3327120000000  0.1980610000000 -0.5212500000000 1.0   0.03
Li     1  0.0538290000000 -0.2797710000000  0.4037990000000 1.0   0.00
Li     1 -0.2797710000000  0.4037990000000  0.0538290000000 1.0   0.00
Li     1  0.4037990000000  0.0538290000000 -0.2797710000000 1.0   0.00
Li     1  0.0139070000000  0.0139070000000  0.0139070000000 1.0   0.03
Li     1  0.1202820000000  0.1202820000000  0.1202820000000 1.0   0.02
O      2 -0.2344120000000  0.4226420000000  0.1930880000000 1.0  -0.12
O      2  0.4226420000000  0.1930880000000 -0.2344120000000 1.0  -0.12
O      2  0.1930880000000 -0.2344120000000  0.4226420000000 1.0  -0.12
O      2  0.1828080000000  0.1828080000000  0.1828080000000 1.0  -0.30
S      3 -0.3869480000000  0.2499000000000 -0.0783390000000 1.0  -0.04
S      3  0.2499000000000 -0.0783390000000 -0.3869480000000 1.0  -0.04
S      3 -0.0783390000000 -0.3869480000000  0.2499000000000 1.0  -0.04
S      3  0.0369270000000  0.3575550000000 -0.2876030000000 1.0  -0.05
S      3  0.3575550000000 -0.2876030000000  0.0369270000000 1.0  -0.05
S      3 -0.2876030000000  0.0369270000000  0.3575550000000 1.0  -0.05
Fe     4 -0.4066120000000 -0.0359170000000  0.3225030000000 1.0  -3.91
Fe     4 -0.0359170000000  0.3225030000000 -0.4066120000000 1.0  -3.91
Fe     4  0.3225030000000 -0.4066120000000 -0.0359170000000 1.0  -3.91
Fe     4  0.4528150000000  0.2149170000000 -0.1081290000000 1.0  -3.83
Fe     4  0.2149170000000 -0.1081290000000  0.4528150000000 1.0  -3.83
Fe     4 -0.1081290000000  0.4528150000000  0.2149170000000 1.0  -3.83
END
