TITL LFSO-Li5FeS2O2-201025-163653-08ec0b -0.1076 355.094950 -6.68702162E+003 7.22709 8.45063 20 (R3) n - 1
REM
REM Run started: Mon, 26 Oct 2020 03:59:59 +0000 in /lustre/scratch/uccabz1/launch_tmp/launcher_2020-10-25-16-36-51-912597
REM CASTEP 20.1 from code version af48c487+ pr-geom-scf-spinfix Tue Jun 2 15:39:59 2020 +0100
REM Functional Perdew Burke Ernzerhof Relativity Koelling-Harmon Dispersion off
REM Cut-off 340.0000 eV Grid scale 1.7500 Gmax 16.5316 1/A FBSC none
REM MP grid 3 3 3 Offset 0.000 0.000 0.000 No. kpts 6 Spacing 0.07
REM Total runtime: 44761.5 s
REM Overall efficiency: 68.6667 %
REM
REM
REM
REM compiler GCC version 4.9.2
REM options -cpp -iprefix /lustre/shared/ucl/apps/gcc/4.9.2/bin/../lib/gcc/x86_64-unknown-linux-gnu/4.9.2/ -mtune=corei7 -march=x86-64 -g -Og
REM COMMAND_LINE
REM seed -89868738 30010228 -1486396895 -1884638436 1560915763 851437330 -415304601 2035191801 324166577 389004060 -884535366 215082607
REM
REM S 3|1.8|5|6|7|30:31:32(qc=5)
REM O 2|1.5|12|13|15|20:21(qc=5)
REM Li 1|1.3|8|9|10|10U:20(qc=5)
REM Fe 3|2.2|2.0|1.0|8|9|10|40:41:32(qc=5)
REM Fe d:4.0 
REM
CELL 1.54180    9.04874    9.04874    9.04874   46.43032   46.43032   46.43032
LATT -1
SFAC Li O  S  Fe 
Li     1 -0.3174820000000 -0.0012170000000  0.1094320000000 1.0   0.01
Li     1  0.1094320000000 -0.3174820000000 -0.0012170000000 1.0   0.01
Li     1 -0.0012170000000  0.1094320000000 -0.3174820000000 1.0   0.01
Li     1  0.4242680000000 -0.1104110000000 -0.2893620000000 1.0  -0.01
Li     1 -0.2893620000000  0.4242680000000 -0.1104110000000 1.0  -0.01
Li     1 -0.1104110000000 -0.2893620000000  0.4242680000000 1.0  -0.01
Li     1  0.5753290000000  0.2358350000000 -0.2185020000000 1.0  -0.05
Li     1 -0.2185020000000  0.5753290000000  0.2358350000000 1.0  -0.05
Li     1  0.2358350000000 -0.2185020000000  0.5753290000000 1.0  -0.05
Li     1 -0.4014910000000 -0.4014910000000 -0.4014910000000 1.0  -0.00
O      2 -0.1567250000000 -0.2921480000000  0.2653460000000 1.0   0.01
O      2  0.2653460000000 -0.1567250000000 -0.2921480000000 1.0   0.01
O      2 -0.2921480000000  0.2653460000000 -0.1567250000000 1.0   0.01
O      2 -0.2968460000000 -0.2968460000000 -0.2968460000000 1.0   0.23
S      3 -0.1097380000000  0.0705240000000 -0.5064650000000 1.0   0.08
S      3 -0.5064650000000 -0.1097380000000  0.0705240000000 1.0   0.08
S      3  0.0705240000000 -0.5064650000000 -0.1097380000000 1.0   0.08
S      3  0.4767040000000  0.4767040000000  0.4767040000000 1.0  -0.54
Fe     4 -0.2202050000000 -0.2202050000000 -0.2202050000000 1.0   3.84
Fe     4  0.1376010000000  0.1376010000000  0.1376010000000 1.0   3.61
END
