TITL LFSO-Li4Fe3S4O-201029-030310-1699b2 -0.0000 537.776811 -1.00784432E+004 24.0000 24.5195 24 (Ima2) n - 1
REM
REM Run started: Sat, 31 Oct 2020 09:49:32 +0000 in /lustre/scratch/uccabz1/launch_tmp/launcher_2020-10-31-03-01-08-222120
REM CASTEP 20.1 from code version af48c487+ pr-geom-scf-spinfix Tue Jun 2 15:39:59 2020 +0100
REM Functional Perdew Burke Ernzerhof Relativity Koelling-Harmon Dispersion off
REM Cut-off 340.0000 eV Grid scale 1.7500 Gmax 16.5316 1/A FBSC none
REM MP grid 3 3 5 Offset 0.000 0.000 0.000 No. kpts 21 Spacing 0.07
REM Total runtime: 213082 s
REM Overall efficiency: 86 %
REM
REM
REM
REM compiler GCC version 4.9.2
REM options -cpp -iprefix /lustre/shared/ucl/apps/gcc/4.9.2/bin/../lib/gcc/x86_64-unknown-linux-gnu/4.9.2/ -mtune=corei7 -march=x86-64 -g -Og
REM COMMAND_LINE
REM seed -1519189242 -196695672 -286184035 1271726459 -1480283490 1978264112 -1797199220 1426245894 1647488765 1789480270 -390267558 -1536344944
REM
REM S 3|1.8|5|6|7|30:31:32(qc=5)
REM O 2|1.5|12|13|15|20:21(qc=5)
REM Li 1|1.3|8|9|10|10U:20(qc=5)
REM Fe 3|2.2|2.0|1.0|8|9|10|40:41:32(qc=5)
REM Fe d:4.0 
REM
CELL 1.54180    9.55706   16.25096   10.04227  144.01080  118.41417   90.00000
LATT -1
SFAC Li O  S  Fe 
Li     1  0.0422800000000  0.4940910000000  0.1565130000000 1.0  -0.03
Li     1  0.1142320000000 -0.3375790000000  0.1565130000000 1.0  -0.03
Li     1  0.1142320000000 -0.0059090000000  0.1565130000000 1.0  -0.03
Li     1  0.0422800000000  0.1624210000000  0.1565130000000 1.0  -0.03
Li     1 -0.1789060000000 -0.1916340000000 -0.5533150000000 1.0  -0.06
Li     1 -0.3744100000000 -0.3616820000000 -0.5533150000000 1.0  -0.06
Li     1 -0.3744100000000  0.3083660000000 -0.5533150000000 1.0  -0.06
Li     1 -0.1789060000000  0.1383180000000 -0.5533150000000 1.0  -0.06
O      2  0.2584350000000 -0.2415650000000 -0.4831290000000 1.0   0.18
O      2  0.2584350000000  0.2584350000000 -0.4831290000000 1.0   0.18
S      3 -0.1182220000000  0.3001450000000  0.4605510000000 1.0   0.09
S      3  0.5787710000000  0.1604050000000  0.4605510000000 1.0   0.09
S      3  0.5787710000000 -0.1998550000000  0.4605510000000 1.0   0.09
S      3 -0.1182220000000 -0.3395950000000  0.4605510000000 1.0   0.09
S      3  0.2167440000000  0.1393450000000 -0.0077150000000 1.0   0.15
S      3 -0.2244600000000 -0.1470610000000 -0.0077150000000 1.0   0.15
S      3 -0.2244600000000 -0.3606550000000 -0.0077150000000 1.0   0.15
S      3  0.2167440000000  0.3529390000000 -0.0077150000000 1.0   0.15
Fe     4  0.2426880000000  0.4181780000000 -0.1740870000000 1.0   3.88
Fe     4 -0.4167760000000  0.4077340000000 -0.1740870000000 1.0   3.88
Fe     4 -0.4167760000000 -0.0818220000000 -0.1740870000000 1.0   3.88
Fe     4  0.2426880000000 -0.0922660000000 -0.1740870000000 1.0   3.88
Fe     4  0.4839080000000 -0.4989120000000 -0.4978230000000 1.0   3.74
Fe     4  0.0182690000000  0.0010880000000 -0.4978230000000 1.0   3.74
END
