TITL LFSO-Li2Fe3S2O2-201022-092743-5c61ed 1.7144 137.185202 -4.46983881E+003 12.0000 12.0789 9 (P2) n - 1
REM
REM Run started: Thu, 22 Oct 2020 11:08:39 +0100 in /scratch/scratch/uccabz1/launch_tmp/launcher_2020-10-22-08-27-42-350084
REM CASTEP 19.11| from code version Version unavailable
REM Functional Perdew Burke Ernzerhof Relativity Koelling-Harmon Dispersion off
REM Cut-off 340.0000 eV Grid scale 1.7500 Gmax 16.5316 1/A FBSC none
REM MP grid 3 4 3 Offset 0.000 0.000 0.000 No. kpts 10 Spacing 0.07
REM Total runtime: 7353.06 s
REM Overall efficiency: 72.4167 %
REM
REM
REM
REM compiler GCC version 4.9.2
REM options -cpp -iprefix /scratch/UCL/applications/gcc/4.9.2/bin/../lib/gcc/x86_64-unknown-linux-gnu/4.9.2/ -mtune=corei7 -march=x86-64 -g -O2
REM COMMAND_LINE
REM seed -748771338 -121903360 679117313 512227179 355178554 -1350564853 1261990341 1416767415 827784027 -2027150491 -954494805 396214442
REM
REM S 3|1.8|5|6|7|30:31:32(qc=5)
REM O 2|1.5|12|13|15|20:21(qc=5)
REM Li 1|1.3|8|9|10|10U:20(qc=5)
REM Fe 3|2.2|2.0|1.0|8|9|10|40:41:32(qc=5)
REM Fe d:4.0 
REM
CELL 1.54180    6.15229    3.76321    7.41169   90.00000   53.07832   90.00000
LATT -1
SFAC Li O  S  Fe 
Li     1 -0.2999240000000 -0.0276610000000  0.1771660000000 1.0  -0.09
Li     1  0.2999240000000 -0.0276610000000 -0.1771660000000 1.0  -0.09
O      2 -0.4528220000000 -0.5372210000000  0.2689170000000 1.0   0.13
O      2  0.4528220000000 -0.5372210000000 -0.2689170000000 1.0   0.13
S      3 -0.1057550000000 -0.0497730000000 -0.2045740000000 1.0   0.03
S      3  0.1057550000000 -0.0497730000000  0.2045740000000 1.0   0.03
Fe     4 -0.2191740000000  0.4512990000000  0.4294350000000 1.0   3.98
Fe     4  0.2191740000000  0.4512990000000 -0.4294350000000 1.0   3.98
Fe     4  0.5000000000000 -0.5252610000000  0.0000000000000 1.0   3.90
END
