TITL LFSO-Li2Fe4S3O2-201026-110309-28064d -0.0232 203.005810 -5.63596266E+003 8.00000 15.6092 11 (R3) n - 1
REM
REM Run started: Mon, 26 Oct 2020 12:51:54 +0000 in /lustre/scratch/uccabz1/launch_tmp/launcher_2020-10-26-11-03-07-288572
REM CASTEP 20.1 from code version af48c487+ pr-geom-scf-spinfix Tue Jun 2 15:39:59 2020 +0100
REM Functional Perdew Burke Ernzerhof Relativity Koelling-Harmon Dispersion off
REM Cut-off 340.0000 eV Grid scale 1.7500 Gmax 16.5316 1/A FBSC none
REM MP grid 3 3 3 Offset 0.000 0.000 0.000 No. kpts 6 Spacing 0.07
REM Total runtime: 7574.21 s
REM Overall efficiency: 96.125 %
REM
REM
REM
REM compiler GCC version 4.9.2
REM options -cpp -iprefix /lustre/shared/ucl/apps/gcc/4.9.2/bin/../lib/gcc/x86_64-unknown-linux-gnu/4.9.2/ -mtune=corei7 -march=x86-64 -g -Og
REM COMMAND_LINE
REM seed 876086153 1931595151 1052337219 1455828310 -977466195 1713476328 -538725775 454430377 1508629787 1083806786 2102619639 -1776600431
REM
REM S 3|1.8|5|6|7|30:31:32(qc=5)
REM O 2|1.5|12|13|15|20:21(qc=5)
REM Li 1|1.3|8|9|10|10U:20(qc=5)
REM Fe 3|2.2|2.0|1.0|8|9|10|40:41:32(qc=5)
REM Fe d:4.0 
REM
CELL 1.54180    6.31362    6.31362    6.31362   66.53683   66.53683   66.53683
LATT -1
SFAC Li O  S  Fe 
Li     1  0.2885380000000  0.2885380000000  0.2885380000000 1.0  -0.11
Li     1 -0.3758430000000 -0.3758430000000 -0.3758430000000 1.0  -0.09
O      2 -0.5109930000000 -0.5109930000000 -0.5109930000000 1.0   0.14
O      2  0.1564570000000  0.1564570000000  0.1564570000000 1.0   0.15
S      3 -0.3453970000000  0.3121310000000 -0.0198820000000 1.0   0.01
S      3 -0.0198820000000 -0.3453970000000  0.3121310000000 1.0   0.01
S      3  0.3121310000000 -0.0198820000000 -0.3453970000000 1.0   0.01
Fe     4  0.3668480000000  0.2561310000000 -0.1895600000000 1.0   3.89
Fe     4 -0.1895600000000  0.3668480000000  0.2561310000000 1.0   3.89
Fe     4  0.2561310000000 -0.1895600000000  0.3668480000000 1.0   3.89
Fe     4 -0.0365820000000 -0.0365820000000 -0.0365820000000 1.0  -3.78
END
