TITL LFSO-Li2Fe2S2O-201022-022650-dc1c14 -0.0038 182.478025 -3.16964914E+003 8.00000 8.12952 7 (C2) n - 1
REM
REM Run started: Thu, 22 Oct 2020 06:38:03 +0100 in /lustre/scratch/uccabz1/launch_tmp/launcher_2020-10-22-01-26-48-519298
REM CASTEP 20.1 from code version af48c487+ pr-geom-scf-spinfix Tue Jun 2 15:39:59 2020 +0100
REM Functional Perdew Burke Ernzerhof Relativity Koelling-Harmon Dispersion off
REM Cut-off 340.0000 eV Grid scale 1.7500 Gmax 16.5316 1/A FBSC none
REM MP grid 5 5 2 Offset 0.000 0.000 0.000 No. kpts 15 Spacing 0.07
REM Total runtime: 17159.2 s
REM Overall efficiency: 73.6667 %
REM
REM
REM
REM compiler GCC version 4.9.2
REM options -cpp -iprefix /lustre/shared/ucl/apps/gcc/4.9.2/bin/../lib/gcc/x86_64-unknown-linux-gnu/4.9.2/ -mtune=corei7 -march=x86-64 -g -Og
REM COMMAND_LINE
REM seed -672827865 927129840 1431832653 -633928396 222076898 528539186 1474202006 -1668762161 387517639 1151490863 226582734 2016596732
REM
REM S 3|1.8|5|6|7|30:31:32(qc=5)
REM O 2|1.5|12|13|15|20:21(qc=5)
REM Li 1|1.3|8|9|10|10U:20(qc=5)
REM Fe 3|2.2|2.0|1.0|8|9|10|40:41:32(qc=5)
REM Fe d:4.0 
REM
CELL 1.54180    3.82518    3.82518   19.43550   54.49850   54.49850   80.13198
LATT -1
SFAC Li O  S  Fe 
Li     1 -0.3155760000000 -0.2993700000000  0.0096240000000 1.0  -0.05
Li     1  0.2993700000000  0.3155760000000 -0.0096240000000 1.0  -0.05
O      2 -0.2130110000000  0.2130110000000  0.0000000000000 1.0   0.15
S      3 -0.2236460000000  0.1683800000000 -0.1721020000000 1.0   0.11
S      3 -0.1683800000000  0.2236460000000  0.1721020000000 1.0   0.11
Fe     4  0.1827380000000 -0.4647650000000 -0.1601480000000 1.0   3.86
Fe     4  0.4647650000000 -0.1827380000000  0.1601480000000 1.0   3.86
END
