TITL LFSO-Li5FeS2O2-201026-055814-cf2a24 -0.0483 138.300420 -3.34574116E+003 3.00003 3.48712 10 (P-1) n - 1
REM
REM Run started: Mon, 26 Oct 2020 08:55:23 +0000 in /lustre/scratch/uccabz1/launch_tmp/launcher_2020-10-26-05-58-12-870257
REM CASTEP 20.1 from code version af48c487+ pr-geom-scf-spinfix Tue Jun 2 15:39:59 2020 +0100
REM Functional Perdew Burke Ernzerhof Relativity Koelling-Harmon Dispersion off
REM Cut-off 340.0000 eV Grid scale 1.7500 Gmax 16.5316 1/A FBSC none
REM MP grid 4 6 3 Offset 0.000 0.000 0.000 No. kpts 36 Spacing 0.07
REM Total runtime: 11600.2 s
REM Overall efficiency: 86.7273 %
REM
REM
REM
REM compiler GCC version 4.9.2
REM options -cpp -iprefix /lustre/shared/ucl/apps/gcc/4.9.2/bin/../lib/gcc/x86_64-unknown-linux-gnu/4.9.2/ -mtune=corei7 -march=x86-64 -g -Og
REM COMMAND_LINE
REM seed 464353160 -2107931569 2093221981 238942498 1856577175 1725261468 -1270041481 935177355 1555502089 906546166 -376550222 301578463
REM
REM S 3|1.8|5|6|7|30:31:32(qc=5)
REM O 2|1.5|12|13|15|20:21(qc=5)
REM Li 1|1.3|8|9|10|10U:20(qc=5)
REM Fe 3|2.2|2.0|1.0|8|9|10|40:41:32(qc=5)
REM Fe d:4.0 
REM
CELL 1.54180    7.91333    4.04703    7.50659   90.12416  120.02167  130.24038
LATT -1
SFAC Li O  S  Fe 
Li     1 -0.2933660000000 -0.9680070000000  0.0341560000000 1.0  -0.00
Li     1  0.2933660000000  0.9680070000000 -0.0341560000000 1.0  -0.00
Li     1 -0.0792810000000  0.0049390000000 -0.2179360000000 1.0  -0.03
Li     1  0.0792810000000 -0.0049390000000  0.2179360000000 1.0  -0.03
Li     1  0.0000000000000 -0.5000000000000  0.5000000000000 1.0   0.01
O      2  0.9010240000000  0.4658230000000 -0.3081330000000 1.0   0.05
O      2 -0.9010240000000 -0.4658230000000  0.3081330000000 1.0   0.05
S      3 -0.5580220000000 -0.3455780000000  0.1886760000000 1.0  -0.08
S      3  0.5580220000000  0.3455780000000 -0.1886760000000 1.0  -0.08
Fe     4 -0.5000000000000  0.0000000000000  0.5000000000000 1.0   3.13
END
