TITL LFSO-Li6FeS3O-201027-102928-277200 -0.0433 244.346064 -3.40912954E+003 4.00001 4.15784 11 (R3) n - 1
REM
REM Run started: Tue, 27 Oct 2020 11:59:02 +0000 in /scratch/scratch/uccabz1/launch_tmp/launcher_2020-10-27-10-29-26-610667
REM CASTEP 19.11| from code version Version unavailable
REM Functional Perdew Burke Ernzerhof Relativity Koelling-Harmon Dispersion off
REM Cut-off 340.0000 eV Grid scale 1.7500 Gmax 16.5316 1/A FBSC none
REM MP grid 3 3 3 Offset 0.000 0.000 0.000 No. kpts 6 Spacing 0.07
REM Total runtime: 5417.03 s
REM Overall efficiency: 93.75 %
REM
REM
REM
REM compiler GCC version 4.9.2
REM options -cpp -iprefix /scratch/UCL/applications/gcc/4.9.2/bin/../lib/gcc/x86_64-unknown-linux-gnu/4.9.2/ -mtune=corei7 -march=x86-64 -g -O2
REM COMMAND_LINE
REM seed -810007541 -738593227 43833296 1858533475 1507978477 899480407 -1418769544 1148656398 1346631426 -2000551293 404213377 -118546014
REM
REM S 3|1.8|5|6|7|30:31:32(qc=5)
REM O 2|1.5|12|13|15|20:21(qc=5)
REM Li 1|1.3|8|9|10|10U:20(qc=5)
REM Fe 3|2.2|2.0|1.0|8|9|10|40:41:32(qc=5)
REM Fe d:4.0 
REM
CELL 1.54180    6.92100    6.92100    7.11775   60.91024   60.91024   60.00000
LATT -1
SFAC Li O  S  Fe 
Li     1  0.2473170000000 -0.1725140000000  0.4345310000000 1.0  -0.01
Li     1 -0.5093340000000  0.2473170000000  0.4345310000000 1.0  -0.01
Li     1 -0.1725140000000 -0.5093340000000  0.4345310000000 1.0  -0.01
Li     1 -0.1513500000000  0.2776130000000 -0.1613500000000 1.0  -0.01
Li     1  0.0350860000000 -0.1513500000000 -0.1613500000000 1.0  -0.01
Li     1  0.2776130000000  0.0350860000000 -0.1613500000000 1.0  -0.01
O      2 -0.0045210000000 -0.0045210000000  0.0135620000000 1.0   0.07
S      3  0.5005230000000 -0.1738640000000 -0.4454230000000 1.0   0.05
S      3  0.1187640000000  0.5005230000000 -0.4454230000000 1.0   0.05
S      3 -0.1738640000000  0.1187640000000 -0.4454230000000 1.0   0.05
Fe     4 -0.1156140000000 -0.1156140000000  0.3468420000000 1.0   3.85
END
