TITL LFSO-Li5FeS2O2-201026-192723-5d2409 -0.0301 150.473739 -3.34510520E+003 5.00000 5.02344 10 (C2) n - 1
REM
REM Run started: Mon, 26 Oct 2020 20:51:34 +0000 in /scratch/scratch/uccabz1/launch_tmp/launcher_2020-10-26-19-27-21-968730
REM CASTEP 19.11| from code version Version unavailable
REM Functional Perdew Burke Ernzerhof Relativity Koelling-Harmon Dispersion off
REM Cut-off 340.0000 eV Grid scale 1.7500 Gmax 16.5316 1/A FBSC none
REM MP grid 5 4 4 Offset 0.000 0.000 0.000 No. kpts 26 Spacing 0.07
REM Total runtime: 5467.63 s
REM Overall efficiency: 90.3 %
REM
REM
REM
REM compiler GCC version 4.9.2
REM options -cpp -iprefix /scratch/UCL/applications/gcc/4.9.2/bin/../lib/gcc/x86_64-unknown-linux-gnu/4.9.2/ -mtune=corei7 -march=x86-64 -g -O2
REM COMMAND_LINE
REM seed 876314961 1438205826 -1682705393 128505993 -842905241 301584469 1350150113 1858185913 276105575 176645528 -1522712655 -2030164004
REM
REM S 3|1.8|5|6|7|30:31:32(qc=5)
REM O 2|1.5|12|13|15|20:21(qc=5)
REM Li 1|1.3|8|9|10|10U:20(qc=5)
REM Fe 3|2.2|2.0|1.0|8|9|10|40:41:32(qc=5)
REM Fe d:4.0 
REM
CELL 1.54180    6.53506    6.68277    6.68277  109.65148  118.82044  118.82044
LATT -1
SFAC Li O  S  Fe 
Li     1 -0.3661230000000 -0.1322810000000 -0.3032960000000 1.0  -0.02
Li     1  0.3661230000000  0.3032960000000  0.1322810000000 1.0  -0.02
Li     1  0.4610340000000  0.0960130000000 -0.5152880000000 1.0   0.01
Li     1 -0.4610340000000  0.5152880000000 -0.0960130000000 1.0   0.01
Li     1  0.5000000000000 -0.1374160000000  0.1374160000000 1.0   0.01
O      2  0.5806850000000  0.2144170000000  0.3149520000000 1.0   0.30
O      2 -0.5806850000000 -0.3149520000000 -0.2144170000000 1.0   0.30
S      3  0.0268320000000 -0.5279890000000  0.0937800000000 1.0   0.17
S      3 -0.0268320000000 -0.0937800000000  0.5279890000000 1.0   0.17
Fe     4 -0.0000000000000 -0.4592910000000  0.4592910000000 1.0   4.06
END
