TITL LFSO-Li6FeSO3-201028-042829-d108c5 0.0089 119.253347 -3.67863331E+003 4.00000 4.07476 11 (C2/m) n - 1
REM
REM Run started: Wed, 28 Oct 2020 04:38:03 +0000 in /scratch/scratch/uccabz1/launch_tmp/launcher_2020-10-28-04-28-27-572042
REM CASTEP 19.11| from code version Version unavailable
REM Functional Perdew Burke Ernzerhof Relativity Koelling-Harmon Dispersion off
REM Cut-off 340.0000 eV Grid scale 1.7500 Gmax 16.5316 1/A FBSC none
REM MP grid 4 3 3 Offset 0.000 0.000 0.000 No. kpts 12 Spacing 0.07
REM Total runtime: 727.85 s
REM Overall efficiency: 69.8 %
REM
REM
REM
REM compiler GCC version 4.9.2
REM options -cpp -iprefix /scratch/UCL/applications/gcc/4.9.2/bin/../lib/gcc/x86_64-unknown-linux-gnu/4.9.2/ -mtune=corei7 -march=x86-64 -g -O2
REM COMMAND_LINE
REM seed 1087810503 -1296058374 862839825 1256423882 -77001321 1038563535 -1529850374 -37641609 -2021488246 -56095448 -1449472732 683263901
REM
REM S 3|1.8|5|6|7|30:31:32(qc=5)
REM O 2|1.5|12|13|15|20:21(qc=5)
REM Li 1|1.3|8|9|10|10U:20(qc=5)
REM Fe 3|2.2|2.0|1.0|8|9|10|40:41:32(qc=5)
REM Fe d:4.0 
REM
CELL 1.54180    3.88162    5.51662    6.30047  115.96329   80.53787   90.00000
LATT -1
SFAC Li O  S  Fe 
Li     1 -0.0028120000000 -0.1197080000000  0.2666760000000 1.0  -0.01
Li     1  0.0028120000000 -0.3863840000000 -0.2666760000000 1.0  -0.01
Li     1  0.0028120000000  0.1197080000000 -0.2666760000000 1.0  -0.01
Li     1 -0.0028120000000  0.3863840000000  0.2666760000000 1.0  -0.01
Li     1  0.4179980000000 -0.2801240000000  0.4397530000000 1.0  -0.05
Li     1 -0.4179980000000  0.2801240000000 -0.4397530000000 1.0  -0.05
O      2 -0.1407890000000 -0.2403290000000 -0.4806570000000 1.0   0.03
O      2  0.1407890000000  0.2403290000000  0.4806570000000 1.0   0.03
O      2  0.0000000000000  0.0000000000000  0.0000000000000 1.0   0.12
S      3  0.5000000000000  0.5000000000000  0.0000000000000 1.0   0.09
Fe     4  0.5000000000000  0.0000000000000  0.0000000000000 1.0   3.87
END
