TITL LFSO-Li5FeSO3-201026-112748-9e482e 0.0394 398.261362 -6.95464948E+003 -2.00018 4.27635 20 (C2) n - 1
REM
REM Run started: Mon, 26 Oct 2020 22:17:58 +0000 in /lustre/scratch/uccabz1/launch_tmp/launcher_2020-10-26-11-27-46-867998
REM CASTEP 20.1 from code version af48c487+ pr-geom-scf-spinfix Tue Jun 2 15:39:59 2020 +0100
REM Functional Perdew Burke Ernzerhof Relativity Koelling-Harmon Dispersion off
REM Cut-off 340.0000 eV Grid scale 1.7500 Gmax 16.5316 1/A FBSC none
REM MP grid 3 3 3 Offset 0.000 0.000 0.000 No. kpts 10 Spacing 0.07
REM Total runtime: 41321.1 s
REM Overall efficiency: 70.25 %
REM
REM
REM
REM compiler GCC version 4.9.2
REM options -cpp -iprefix /lustre/shared/ucl/apps/gcc/4.9.2/bin/../lib/gcc/x86_64-unknown-linux-gnu/4.9.2/ -mtune=corei7 -march=x86-64 -g -Og
REM COMMAND_LINE
REM seed 1625873257 -234195378 -1584645581 -867291842 1154550783 -1682370284 2094484819 -585820000 -272656823 25250439 -630331166 -679716239
REM
REM S 3|1.8|5|6|7|30:31:32(qc=5)
REM O 2|1.5|12|13|15|20:21(qc=5)
REM Li 1|1.3|8|9|10|10U:20(qc=5)
REM Fe 3|2.2|2.0|1.0|8|9|10|40:41:32(qc=5)
REM Fe d:4.0 
REM
CELL 1.54180    8.58034    8.58034    8.70199  127.65150  127.65150   72.99323
LATT -1
SFAC Li O  S  Fe 
Li     1  0.3889930000000 -0.1287060000000 -0.2106200000000 1.0   0.02
Li     1  0.1287060000000 -0.3889930000000  0.2106200000000 1.0   0.02
Li     1  0.2853640000000  0.1873360000000  0.1621010000000 1.0  -0.01
Li     1 -0.1873360000000 -0.2853640000000 -0.1621010000000 1.0  -0.01
Li     1 -0.7401940000000  0.1769900000000 -0.1891970000000 1.0   0.02
Li     1 -0.1769900000000  0.7401940000000  0.1891970000000 1.0   0.02
Li     1 -0.2896080000000 -0.4645830000000  0.3328190000000 1.0  -0.01
Li     1  0.4645830000000  0.2896080000000 -0.3328190000000 1.0  -0.01
Li     1  0.5254960000000 -0.1885510000000  0.5127570000000 1.0   0.02
Li     1  0.1885510000000 -0.5254960000000 -0.5127570000000 1.0   0.02
O      2  0.2267340000000  0.2013660000000 -0.6432200000000 1.0   0.07
O      2 -0.2013660000000 -0.2267340000000  0.6432200000000 1.0   0.07
O      2 -0.0286340000000  0.6253570000000  0.3817330000000 1.0   0.10
O      2 -0.6253570000000  0.0286340000000 -0.3817330000000 1.0   0.10
O      2  0.1948930000000 -0.0002430000000 -0.1648100000000 1.0   0.10
O      2  0.0002430000000 -0.1948930000000  0.1648100000000 1.0   0.10
S      3  0.3893210000000 -0.5416820000000  0.1934160000000 1.0   0.02
S      3  0.5416820000000 -0.3893210000000 -0.1934160000000 1.0   0.02
Fe     4  0.1765280000000  0.0112610000000  0.3524970000000 1.0  -1.32
Fe     4 -0.0112610000000 -0.1765280000000 -0.3524970000000 1.0  -1.32
END
