TITL LFSO-Li2Fe2S2O-201022-052412-9f6b3a 0.0151 297.221068 -6.34044234E+003 16.0000 16.1740 14 (P21212) n - 1
REM
REM Run started: Thu, 22 Oct 2020 07:22:50 +0100 in /lustre/scratch/uccabz1/launch_tmp/launcher_2020-10-22-04-24-10-854099
REM CASTEP 20.1 from code version af48c487+ pr-geom-scf-spinfix Tue Jun 2 15:39:59 2020 +0100
REM Functional Perdew Burke Ernzerhof Relativity Koelling-Harmon Dispersion off
REM Cut-off 340.0000 eV Grid scale 1.7500 Gmax 16.5316 1/A FBSC none
REM MP grid 3 3 2 Offset 0.000 0.000 0.000 No. kpts 4 Spacing 0.07
REM Total runtime: 6379.97 s
REM Overall efficiency: 81.3636 %
REM
REM
REM
REM compiler GCC version 4.9.2
REM options -cpp -iprefix /lustre/shared/ucl/apps/gcc/4.9.2/bin/../lib/gcc/x86_64-unknown-linux-gnu/4.9.2/ -mtune=corei7 -march=x86-64 -g -Og
REM COMMAND_LINE
REM seed 2017375385 -15131067 1504077970 1613198873 1231143717 -795857380 642279538 -85897222 -1028908674 -1557257791 -1725905761 457760857
REM
REM S 3|1.8|5|6|7|30:31:32(qc=5)
REM O 2|1.5|12|13|15|20:21(qc=5)
REM Li 1|1.3|8|9|10|10U:20(qc=5)
REM Fe 3|2.2|2.0|1.0|8|9|10|40:41:32(qc=5)
REM Fe d:4.0 
REM
CELL 1.54180    5.93918    5.77049    8.67243   90.00000   90.00000   90.00000
LATT -1
SFAC Li O  S  Fe 
Li     1 -0.2314760000000 -0.0493450000000  0.0760950000000 1.0  -0.00
Li     1  0.2314760000000 -0.0493450000000 -0.0760950000000 1.0  -0.00
Li     1  0.2685240000000  0.0493450000000  0.4239050000000 1.0  -0.00
Li     1 -0.2685240000000  0.0493450000000 -0.4239050000000 1.0  -0.00
O      2 -0.0000000000000 -0.2493250000000 -0.0000000000000 1.0   0.21
O      2 -0.5000000000000  0.2493250000000 -0.5000000000000 1.0   0.21
S      3 -0.4662230000000 -0.2350450000000 -0.2484810000000 1.0   0.10
S      3  0.4662230000000 -0.2350450000000  0.2484810000000 1.0   0.10
S      3  0.0337770000000  0.2350450000000 -0.2515190000000 1.0   0.10
S      3 -0.0337770000000  0.2350450000000  0.2515190000000 1.0   0.10
Fe     4  0.1445270000000 -0.4312260000000  0.1576170000000 1.0   3.80
Fe     4 -0.1445270000000 -0.4312260000000 -0.1576170000000 1.0   3.80
Fe     4 -0.3554730000000  0.4312260000000  0.3423830000000 1.0   3.80
Fe     4  0.3554730000000  0.4312260000000 -0.3423830000000 1.0   3.80
END
