TITL LFSO-Li4Fe2S3O-201027-012707-b71aca 0.0696 160.684705 -3.87284496E+003 7.99972 8.11372 10 (Immm) n - 1
REM
REM Run started: Tue, 27 Oct 2020 02:59:35 +0000 in /scratch/scratch/uccabz1/launch_tmp/launcher_2020-10-27-01-27-06-214260
REM CASTEP 19.11| from code version Version unavailable
REM Functional Perdew Burke Ernzerhof Relativity Koelling-Harmon Dispersion off
REM Cut-off 340.0000 eV Grid scale 1.7500 Gmax 16.5316 1/A FBSC none
REM MP grid 4 3 4 Offset 0.000 0.000 0.000 No. kpts 24 Spacing 0.07
REM Total runtime: 6130.19 s
REM Overall efficiency: 81.5556 %
REM
REM
REM
REM compiler GCC version 4.9.2
REM options -cpp -iprefix /scratch/UCL/applications/gcc/4.9.2/bin/../lib/gcc/x86_64-unknown-linux-gnu/4.9.2/ -mtune=corei7 -march=x86-64 -g -O2
REM COMMAND_LINE
REM seed 1551387506 -1718300048 1004738071 -63166822 556057043 761048618 1467241126 -596685567 -637634918 -404189992 -201059531 2146178248
REM
REM S 3|1.8|5|6|7|30:31:32(qc=5)
REM O 2|1.5|12|13|15|20:21(qc=5)
REM Li 1|1.3|8|9|10|10U:20(qc=5)
REM Fe 3|2.2|2.0|1.0|8|9|10|40:41:32(qc=5)
REM Fe d:4.0 
REM
CELL 1.54180    5.34808    6.77161    6.18876  123.16764  115.59968   90.00000
LATT -1
SFAC Li O  S  Fe 
Li     1  0.2313370000000 -0.1936210000000 -0.0000990000000 1.0  -0.05
Li     1 -0.2314360000000  0.1935210000000 -0.0000990000000 1.0  -0.05
Li     1  0.2314360000000  0.1936210000000  0.0000990000000 1.0  -0.05
Li     1 -0.2313370000000 -0.1935210000000  0.0000990000000 1.0  -0.05
O      2 -0.5000000000000  0.0000000000000  0.0000000000000 1.0   0.11
S      3 -0.2112910000000 -0.2112910000000  0.5774180000000 1.0   0.11
S      3  0.2112910000000  0.2112910000000 -0.5774180000000 1.0   0.11
S      3  0.0000000000000 -0.5000000000000  0.0000000000000 1.0   0.07
Fe     4  0.2670390000000 -0.2329610000000  0.5340790000000 1.0   3.90
Fe     4 -0.2670390000000  0.2329610000000 -0.5340790000000 1.0   3.90
END
