TITL LFSO-Li5FeS2O2-201025-113408-739062 0.0024 243.578591 -3.33877337E+003 5.00000 5.19307 10 (R3m) n - 1
REM
REM Run started: Sun, 25 Oct 2020 12:12:35 +0000 in /lustre/scratch/uccabz1/launch_tmp/launcher_2020-10-25-11-32-37-727098
REM CASTEP 20.1 from code version af48c487+ pr-geom-scf-spinfix Tue Jun 2 15:39:59 2020 +0100
REM Functional Perdew Burke Ernzerhof Relativity Koelling-Harmon Dispersion off
REM Cut-off 340.0000 eV Grid scale 1.7500 Gmax 16.5316 1/A FBSC none
REM MP grid 3 3 3 Offset 0.000 0.000 0.000 No. kpts 6 Spacing 0.07
REM Total runtime: 2587.3 s
REM Overall efficiency: 79.375 %
REM
REM
REM
REM compiler GCC version 4.9.2
REM options -cpp -iprefix /lustre/shared/ucl/apps/gcc/4.9.2/bin/../lib/gcc/x86_64-unknown-linux-gnu/4.9.2/ -mtune=corei7 -march=x86-64 -g -Og
REM COMMAND_LINE
REM seed 1139813285 -958610991 198328967 -541479828 -1792481594 1505298654 1698526844 -2026621202 -922202218 1805007440 -990897539 -1977430146
REM
REM S 3|1.8|5|6|7|30:31:32(qc=5)
REM O 2|1.5|12|13|15|20:21(qc=5)
REM Li 1|1.3|8|9|10|10U:20(qc=5)
REM Fe 3|2.2|2.0|1.0|8|9|10|40:41:32(qc=5)
REM Fe d:4.0 
REM
CELL 1.54180    6.55361    6.55361    7.56310   64.32526   64.32526   60.00000
LATT -1
SFAC Li O  S  Fe 
Li     1  0.5101550000000 -0.0987680000000  0.0760510000000 1.0  -0.00
Li     1 -0.0987680000000 -0.4874390000000  0.0760510000000 1.0  -0.00
Li     1 -0.4874390000000  0.5101550000000  0.0760510000000 1.0  -0.00
Li     1 -0.2230840000000 -0.2230840000000  0.6692530000000 1.0  -0.04
Li     1 -0.0288280000000 -0.0288280000000  0.0864840000000 1.0  -0.04
O      2  0.0590110000000  0.0590110000000 -0.1770340000000 1.0   1.00
O      2 -0.3087050000000 -0.3087050000000  0.9261140000000 1.0   0.05
S      3  0.3113760000000  0.3113760000000 -0.9341270000000 1.0   0.06
S      3 -0.4637480000000 -0.4637480000000  1.3912440000000 1.0   0.09
Fe     4  0.4250640000000  0.4250640000000 -1.2751910000000 1.0   3.89
END
