TITL LFSO-Li2Fe3S2O2-201024-045119-0a749e 0.3683 339.034484 -8.93668614E+003 19.9999 21.0993 18 (P-1) n - 1
REM
REM Run started: Sat, 24 Oct 2020 13:28:22 +0100 in /lustre/scratch/uccabz1/launch_tmp/launcher_2020-10-24-03-51-17-468762
REM CASTEP 20.1 from code version af48c487+ pr-geom-scf-spinfix Tue Jun 2 15:39:59 2020 +0100
REM Functional Perdew Burke Ernzerhof Relativity Koelling-Harmon Dispersion off
REM Cut-off 340.0000 eV Grid scale 1.7500 Gmax 16.5316 1/A FBSC none
REM MP grid 3 4 2 Offset 0.000 0.000 0.000 No. kpts 12 Spacing 0.07
REM Total runtime: 34119.3 s
REM Overall efficiency: 74.5833 %
REM
REM
REM
REM compiler GCC version 4.9.2
REM options -cpp -iprefix /lustre/shared/ucl/apps/gcc/4.9.2/bin/../lib/gcc/x86_64-unknown-linux-gnu/4.9.2/ -mtune=corei7 -march=x86-64 -g -Og
REM COMMAND_LINE
REM seed -743168645 317240085 149872011 398815259 1216036361 2067515724 846883402 -937453006 -1516168518 -667140075 344862126 553958629
REM
REM S 3|1.8|5|6|7|30:31:32(qc=5)
REM O 2|1.5|12|13|15|20:21(qc=5)
REM Li 1|1.3|8|9|10|10U:20(qc=5)
REM Fe 3|2.2|2.0|1.0|8|9|10|40:41:32(qc=5)
REM Fe d:4.0 
REM
CELL 1.54180    6.17469    8.78152   12.59308  141.48099   73.73547  123.51469
LATT -1
SFAC Li O  S  Fe 
Li     1  0.4699090000000  0.1835360000000  0.0503690000000 1.0  -0.03
Li     1 -0.4699090000000 -0.1835360000000 -0.0503690000000 1.0  -0.03
Li     1 -0.2697750000000  0.3510240000000  0.3530980000000 1.0  -0.02
Li     1  0.2697750000000 -0.3510240000000 -0.3530980000000 1.0  -0.02
O      2  0.4485950000000  0.4240590000000  0.0787960000000 1.0   0.17
O      2 -0.4485950000000 -0.4240590000000 -0.0787960000000 1.0   0.17
O      2  0.5422360000000 -0.0959750000000 -0.1592910000000 1.0  -0.02
O      2 -0.5422360000000  0.0959750000000  0.1592910000000 1.0  -0.02
S      3 -0.1403260000000  0.2922790000000 -0.3996480000000 1.0   0.07
S      3  0.1403260000000 -0.2922790000000  0.3996480000000 1.0   0.07
S      3 -0.2037220000000 -0.0698360000000 -0.2526260000000 1.0  -0.03
S      3  0.2037220000000  0.0698360000000  0.2526260000000 1.0  -0.03
Fe     4 -0.4236360000000 -0.2120710000000  0.3289860000000 1.0   3.39
Fe     4  0.4236360000000  0.2120710000000 -0.3289860000000 1.0   3.39
Fe     4  0.2102150000000  0.3741090000000 -0.0578060000000 1.0   3.41
Fe     4 -0.2102150000000 -0.3741090000000  0.0578060000000 1.0   3.41
Fe     4  0.0861570000000 -0.1348330000000  0.3284110000000 1.0   3.07
Fe     4 -0.0861570000000  0.1348330000000 -0.3284110000000 1.0   3.07
END
