TITL LFSO-Li4Fe3S3O2-201030-055758-9d2c36 0.0622 224.000368 -5.17155504E+003 11.9993 12.1242 12 (P3) n - 1
REM
REM Run started: Fri, 30 Oct 2020 07:34:02 +0000 in /lustre/scratch/uccabz1/launch_tmp/launcher_2020-10-30-05-57-56-774164
REM CASTEP 20.1 from code version af48c487+ pr-geom-scf-spinfix Tue Jun 2 15:39:59 2020 +0100
REM Functional Perdew Burke Ernzerhof Relativity Koelling-Harmon Dispersion off
REM Cut-off 340.0000 eV Grid scale 1.7500 Gmax 16.5316 1/A FBSC none
REM MP grid 3 3 3 Offset 0.000 0.000 0.000 No. kpts 8 Spacing 0.07
REM Total runtime: 6320.26 s
REM Overall efficiency: 84.5714 %
REM
REM
REM
REM compiler GCC version 4.9.2
REM options -cpp -iprefix /lustre/shared/ucl/apps/gcc/4.9.2/bin/../lib/gcc/x86_64-unknown-linux-gnu/4.9.2/ -mtune=corei7 -march=x86-64 -g -Og
REM COMMAND_LINE
REM seed -597150569 -2010788247 495646763 -1424386324 -112018081 -60380717 1377676678 2123106211 1374350127 -1448726098 1186866933 -166382031
REM
REM S 3|1.8|5|6|7|30:31:32(qc=5)
REM O 2|1.5|12|13|15|20:21(qc=5)
REM Li 1|1.3|8|9|10|10U:20(qc=5)
REM Fe 3|2.2|2.0|1.0|8|9|10|40:41:32(qc=5)
REM Fe d:4.0 
REM
CELL 1.54180    7.04372    7.04372    5.21331   90.00000   90.00000  120.00000
LATT -1
SFAC Li O  S  Fe 
Li     1 -0.4269040000000 -0.2193560000000 -0.2192260000000 1.0  -0.04
Li     1  0.2193560000000 -0.2075480000000 -0.2192260000000 1.0  -0.04
Li     1  0.2075480000000  0.4269040000000 -0.2192260000000 1.0  -0.04
Li     1 -0.3333330000000  0.3333330000000 -0.1124170000000 1.0  -0.05
O      2  0.3333330000000 -0.3333330000000 -0.4959590000000 1.0   0.08
O      2  0.3333330000000 -0.3333330000000  0.0144530000000 1.0   0.17
S      3 -0.1661680000000  0.1542270000000  0.0847690000000 1.0   0.16
S      3 -0.1542270000000 -0.3203940000000  0.0847690000000 1.0   0.16
S      3  0.3203940000000  0.1661680000000  0.0847690000000 1.0   0.16
Fe     4  0.4847360000000  0.5296500000000 -0.7557550000000 1.0   3.81
Fe     4 -0.5296500000000 -0.0449140000000 -0.7557550000000 1.0   3.81
Fe     4  0.0449140000000 -0.4847360000000 -0.7557550000000 1.0   3.81
END
