TITL LFSO-Li6FeSO3-201028-033346-3b02ea -0.5182 182.366459 -3.67960137E+003 3.99498 4.18856 11 (P-1) n - 1
REM
REM Run started: Wed, 28 Oct 2020 10:39:26 +0000 in /scratch/scratch/uccabz1/launch_tmp/launcher_2020-10-28-03-33-45-326160
REM CASTEP 19.11| from code version Version unavailable
REM Functional Perdew Burke Ernzerhof Relativity Koelling-Harmon Dispersion off
REM Cut-off 340.0000 eV Grid scale 1.7500 Gmax 16.5316 1/A FBSC none
REM MP grid 6 6 4 Offset 0.000 0.000 0.000 No. kpts 72 Spacing 0.07
REM Total runtime: 38544.2 s
REM Overall efficiency: 94.5 %
REM
REM
REM
REM compiler GCC version 4.9.2
REM options -cpp -iprefix /scratch/UCL/applications/gcc/4.9.2/bin/../lib/gcc/x86_64-unknown-linux-gnu/4.9.2/ -mtune=corei7 -march=x86-64 -g -O2
REM COMMAND_LINE
REM seed 676661302 19640098 1102111502 324531247 -1161062041 531186205 581854424 1371730120 -1575590920 1505856089 774690220 -1027640574
REM
REM S 3|1.8|5|6|7|30:31:32(qc=5)
REM O 2|1.5|12|13|15|20:21(qc=5)
REM Li 1|1.3|8|9|10|10U:20(qc=5)
REM Fe 3|2.2|2.0|1.0|8|9|10|40:41:32(qc=5)
REM Fe d:4.0 
REM
CELL 1.54180   15.22663    8.05194   13.29982   42.76645  158.48745  154.88436
LATT -1
SFAC Li O  S  Fe 
Li     1 -0.5704170000000 -0.1482500000000  0.1060900000000 1.0  -0.03
Li     1  0.5704170000000  0.1482500000000 -0.1060900000000 1.0  -0.03
Li     1  0.0609140000000 -0.2520940000000  0.3442040000000 1.0  -0.02
Li     1 -0.0609140000000  0.2520940000000 -0.3442040000000 1.0  -0.02
Li     1 -0.2062790000000 -0.3653640000000  0.4046860000000 1.0  -0.03
Li     1  0.2062790000000  0.3653640000000 -0.4046860000000 1.0  -0.03
O      2 -0.4764930000000  0.3772020000000 -0.1506420000000 1.0   0.07
O      2  0.4764930000000 -0.3772020000000  0.1506420000000 1.0   0.07
O      2  0.0000000000000  0.5000000000000  0.5000000000000 1.0   0.01
S      3  0.5000000000000  0.0000000000000  0.5000000000000 1.0   0.11
Fe     4  0.0000000000000  0.0000000000000  0.0000000000000 1.0   3.88
END
