TITL LFSO-Li4Fe3S4O-201030-040121-d3c5de -0.0436 554.844816 -1.00787981E+004 24.0000 24.4801 24 (Cc) n - 1
REM
REM Run started: Fri, 30 Oct 2020 13:39:02 +0000 in /lustre/scratch/uccabz1/launch_tmp/launcher_2020-10-30-04-01-19-520627
REM CASTEP 20.1 from code version af48c487+ pr-geom-scf-spinfix Tue Jun 2 15:39:59 2020 +0100
REM Functional Perdew Burke Ernzerhof Relativity Koelling-Harmon Dispersion off
REM Cut-off 340.0000 eV Grid scale 1.7500 Gmax 16.5316 1/A FBSC none
REM MP grid 2 3 3 Offset 0.000 0.000 0.000 No. kpts 6 Spacing 0.07
REM Total runtime: 36791.8 s
REM Overall efficiency: 73.4615 %
REM
REM
REM
REM compiler GCC version 4.9.2
REM options -cpp -iprefix /lustre/shared/ucl/apps/gcc/4.9.2/bin/../lib/gcc/x86_64-unknown-linux-gnu/4.9.2/ -mtune=corei7 -march=x86-64 -g -Og
REM COMMAND_LINE
REM seed -1055118813 -2126721847 -1935153454 -1833580329 -2041693136 1803794695 -1942733334 831503720 298788930 -227250216 1505838323 399725737
REM
REM S 3|1.8|5|6|7|30:31:32(qc=5)
REM O 2|1.5|12|13|15|20:21(qc=5)
REM Li 1|1.3|8|9|10|10U:20(qc=5)
REM Fe 3|2.2|2.0|1.0|8|9|10|40:41:32(qc=5)
REM Fe d:4.0 
REM
CELL 1.54180    9.03909   11.26954   11.26954   36.13410   56.99996   56.99996
LATT -1
SFAC Li O  S  Fe 
Li     1 -0.3429630000000 -0.0957410000000 -0.0962830000000 1.0  -0.03
Li     1  0.1570370000000 -0.0962830000000 -0.0957410000000 1.0  -0.03
Li     1 -0.3315650000000  0.2431400000000 -0.1618880000000 1.0  -0.00
Li     1  0.1684350000000 -0.1618880000000  0.2431400000000 1.0  -0.00
Li     1  0.1070710000000 -0.1248060000000 -0.3948410000000 1.0  -0.01
Li     1 -0.3929290000000 -0.3948410000000 -0.1248060000000 1.0  -0.01
Li     1 -0.0142970000000  0.5442740000000 -0.2781560000000 1.0  -0.05
Li     1  0.4857030000000 -0.2781560000000  0.5442740000000 1.0  -0.05
O      2  0.0946720000000 -0.2408940000000  0.1766050000000 1.0   0.18
O      2 -0.4053280000000  0.1766050000000 -0.2408940000000 1.0   0.18
S      3  0.0952000000000  0.1968400000000  0.0520750000000 1.0   0.16
S      3 -0.4048000000000  0.0520750000000  0.1968400000000 1.0   0.16
S      3  0.4908250000000  0.3532550000000  0.3316310000000 1.0   0.10
S      3 -0.0091750000000  0.3316310000000  0.3532550000000 1.0   0.10
S      3 -0.2116030000000 -0.4904550000000  0.6677720000000 1.0   0.15
S      3  0.2883970000000  0.6677720000000 -0.4904550000000 1.0   0.15
S      3 -0.1643590000000 -0.2741320000000 -0.1769870000000 1.0   0.11
S      3  0.3356410000000 -0.1769870000000 -0.2741320000000 1.0   0.11
Fe     4 -0.0007760000000  0.4171360000000  0.0773370000000 1.0   3.78
Fe     4  0.4992240000000  0.0773370000000  0.4171360000000 1.0   3.78
Fe     4  0.3458370000000  0.3186090000000 -0.2113000000000 1.0   3.75
Fe     4 -0.1541630000000 -0.2113000000000  0.3186090000000 1.0   3.75
Fe     4 -0.3217860000000  0.3092660000000 -0.5205160000000 1.0   3.87
Fe     4  0.1782140000000 -0.5205160000000  0.3092660000000 1.0   3.87
END
