TITL LFSO-Li4Fe2S3O-201027-100345-b9f8d3 0.0730 187.068235 -3.87153268E+003 6.20265 7.17366 10 (P-1) n - 1
REM
REM Run started: Tue, 27 Oct 2020 18:41:27 +0000 in /lustre/scratch/uccabz1/launch_tmp/launcher_2020-10-27-10-03-44-298834
REM CASTEP 20.1 from code version af48c487+ pr-geom-scf-spinfix Tue Jun 2 15:39:59 2020 +0100
REM Functional Perdew Burke Ernzerhof Relativity Koelling-Harmon Dispersion off
REM Cut-off 340.0000 eV Grid scale 1.7500 Gmax 16.5316 1/A FBSC none
REM MP grid 4 7 2 Offset 0.000 0.000 0.000 No. kpts 28 Spacing 0.07
REM Total runtime: 36671.9 s
REM Overall efficiency: 87.9167 %
REM
REM
REM
REM compiler GCC version 4.9.2
REM options -cpp -iprefix /lustre/shared/ucl/apps/gcc/4.9.2/bin/../lib/gcc/x86_64-unknown-linux-gnu/4.9.2/ -mtune=corei7 -march=x86-64 -g -Og
REM COMMAND_LINE
REM seed 377659480 1484933995 1403509845 123386626 -1744702637 -894554051 -425544099 -839075525 -1088847700 -1308830398 634087483 68671310
REM
REM S 3|1.8|5|6|7|30:31:32(qc=5)
REM O 2|1.5|12|13|15|20:21(qc=5)
REM Li 1|1.3|8|9|10|10U:20(qc=5)
REM Fe 3|2.2|2.0|1.0|8|9|10|40:41:32(qc=5)
REM Fe d:4.0 
REM
CELL 1.54180   10.61857    4.26192   18.73698   49.10212   27.39045   31.77547
LATT -1
SFAC Li O  S  Fe 
Li     1  0.9294870000000 -0.5761650000000 -0.6056430000000 1.0   0.01
Li     1 -0.9294870000000  0.5761650000000  0.6056430000000 1.0   0.01
Li     1 -0.6195910000000 -0.1119530000000  0.3813840000000 1.0  -0.03
Li     1  0.6195910000000  0.1119530000000 -0.3813840000000 1.0  -0.03
O      2  1.0000000000000  0.0000000000000 -0.5000000000000 1.0  -0.22
S      3  0.4536400000000  0.1193020000000 -0.0954940000000 1.0  -0.04
S      3 -0.4536400000000 -0.1193020000000  0.0954940000000 1.0  -0.04
S      3 -0.5000000000000  0.5000000000000 -0.5000000000000 1.0  -0.13
Fe     4 -0.3936090000000  0.2828230000000 -0.0902670000000 1.0   3.34
Fe     4  0.3936090000000 -0.2828230000000  0.0902670000000 1.0   3.34
END
