TITL LFSO-Li2Fe4S3O2-201026-174330-8e2552 -0.0027 259.144550 -5.63481871E+003 16.0000 16.1874 11 (Fmm2) n - 1
REM
REM Run started: Mon, 26 Oct 2020 22:39:44 +0000 in /lustre/scratch/uccabz1/launch_tmp/launcher_2020-10-26-17-44-20-598060
REM CASTEP 20.1 from code version af48c487+ pr-geom-scf-spinfix Tue Jun 2 15:39:59 2020 +0100
REM Functional Perdew Burke Ernzerhof Relativity Koelling-Harmon Dispersion off
REM Cut-off 340.0000 eV Grid scale 1.7500 Gmax 16.5316 1/A FBSC none
REM MP grid 3 3 3 Offset 0.000 0.000 0.000 No. kpts 8 Spacing 0.07
REM Total runtime: 18989.5 s
REM Overall efficiency: 94.5 %
REM
REM
REM
REM compiler GCC version 4.9.2
REM options -cpp -iprefix /scratch/UCL/applications/gcc/4.9.2/bin/../lib/gcc/x86_64-unknown-linux-gnu/4.9.2/ -mtune=corei7 -march=x86-64 -g -O2
REM COMMAND_LINE
REM seed 1398318194 -625722135 2016769363 975109802 -744063867 821763512 674608138 1099545145 -1231588451 1293730930 1014772635 -1482066613
REM
REM S 3|1.8|5|6|7|30:31:32(qc=5)
REM O 2|1.5|12|13|15|20:21(qc=5)
REM Li 1|1.3|8|9|10|10U:20(qc=5)
REM Fe 3|2.2|2.0|1.0|8|9|10|40:41:32(qc=5)
REM Fe d:4.0 
REM
CELL 1.54180    7.31685    7.31685    6.66779  106.31712  106.31712  119.20513
LATT -1
SFAC Li O  S  Fe 
Li     1 -0.2213100000000 -0.0485940000000 -0.2699040000000 1.0  -0.04
Li     1 -0.0485940000000 -0.2213100000000 -0.2699040000000 1.0  -0.04
O      2 -0.3958310000000 -0.3958310000000 -0.4040480000000 1.0   0.25
O      2 -0.0082170000000 -0.0082170000000 -0.4040480000000 1.0   0.25
S      3  0.4799660000000 -0.0627500000000  0.4172150000000 1.0   0.11
S      3 -0.0627500000000  0.4799660000000  0.4172150000000 1.0   0.11
S      3  0.0849600000000  0.0849600000000  0.1699200000000 1.0   0.22
Fe     4 -0.1191820000000  0.1172220000000  0.4172690000000 1.0   3.78
Fe     4 -0.4635490000000  0.3000470000000  0.4172690000000 1.0   3.78
Fe     4  0.3000470000000 -0.4635490000000  0.4172690000000 1.0   3.78
Fe     4  0.1172220000000 -0.1191820000000  0.4172690000000 1.0   3.78
END
