TITL LFSO-Li4Fe3S4O-201029-135754-fe929c 0.0200 426.290809 -1.00781980E+004 20.0000 21.0770 24 (P42) n - 1
REM
REM Run started: Thu, 29 Oct 2020 16:57:40 +0000 in /lustre/scratch/uccabz1/launch_tmp/launcher_2020-10-29-13-57-53-284399
REM CASTEP 20.1 from code version af48c487+ pr-geom-scf-spinfix Tue Jun 2 15:39:59 2020 +0100
REM Functional Perdew Burke Ernzerhof Relativity Koelling-Harmon Dispersion off
REM Cut-off 340.0000 eV Grid scale 1.7500 Gmax 16.5316 1/A FBSC none
REM MP grid 2 2 2 Offset 0.000 0.000 0.000 No. kpts 1 Spacing 0.07
REM Total runtime: 11261.4 s
REM Overall efficiency: 68.2308 %
REM
REM
REM
REM compiler GCC version 4.9.2
REM options -cpp -iprefix /lustre/shared/ucl/apps/gcc/4.9.2/bin/../lib/gcc/x86_64-unknown-linux-gnu/4.9.2/ -mtune=corei7 -march=x86-64 -g -Og
REM COMMAND_LINE
REM seed 2087860753 -251726449 2112368092 1677810840 -2045642587 1958738242 637950878 1476407268 -142917096 1951297625 556054043 -170114609
REM
REM S 3|1.8|5|6|7|30:31:32(qc=5)
REM O 2|1.5|12|13|15|20:21(qc=5)
REM Li 1|1.3|8|9|10|10U:20(qc=5)
REM Fe 3|2.2|2.0|1.0|8|9|10|40:41:32(qc=5)
REM Fe d:4.0 
REM
CELL 1.54180    7.42065    7.42065    7.74144   90.00000   90.00000   90.00000
LATT -1
SFAC Li O  S  Fe 
Li     1  0.4856490000000 -0.1892080000000  0.1593370000000 1.0  -0.05
Li     1 -0.4856490000000  0.1892080000000  0.1593370000000 1.0  -0.05
Li     1  0.1892080000000  0.4856490000000 -0.3406630000000 1.0  -0.05
Li     1 -0.1892080000000 -0.4856490000000 -0.3406630000000 1.0  -0.05
Li     1  0.4387260000000  0.2121510000000 -0.1885510000000 1.0  -0.02
Li     1 -0.4387260000000 -0.2121510000000 -0.1885510000000 1.0  -0.02
Li     1 -0.2121510000000  0.4387260000000  0.3114490000000 1.0  -0.02
Li     1  0.2121510000000 -0.4387260000000  0.3114490000000 1.0  -0.02
O      2 -0.5000000000000  0.0000000000000 -0.0358010000000 1.0   0.11
O      2  0.0000000000000 -0.5000000000000 -0.5358010000000 1.0   0.11
S      3  0.2958170000000 -0.3953690000000 -0.0335850000000 1.0  -0.01
S      3 -0.2958170000000  0.3953690000000 -0.0335850000000 1.0  -0.01
S      3  0.3953690000000  0.2958170000000  0.4664150000000 1.0  -0.01
S      3 -0.3953690000000 -0.2958170000000  0.4664150000000 1.0  -0.01
S      3 -0.0887800000000 -0.2116920000000 -0.1418800000000 1.0  -0.01
S      3  0.0887800000000  0.2116920000000 -0.1418800000000 1.0  -0.01
S      3  0.2116920000000 -0.0887800000000  0.3581200000000 1.0  -0.01
S      3 -0.2116920000000  0.0887800000000  0.3581200000000 1.0  -0.01
Fe     4 -0.0830450000000 -0.2131230000000 -0.5573630000000 1.0   3.78
Fe     4  0.0830450000000  0.2131230000000 -0.5573630000000 1.0   3.78
Fe     4  0.2131230000000 -0.0830450000000 -0.0573630000000 1.0   3.78
Fe     4 -0.2131230000000  0.0830450000000 -0.0573630000000 1.0   3.78
Fe     4  0.0000000000000 -0.5000000000000 -0.0414780000000 1.0   2.49
Fe     4 -0.5000000000000  0.0000000000000  0.4585220000000 1.0   2.49
END
