TITL LFSO-Li4Fe3S4O-201029-234902-4d2ce0 -0.0440 274.771101 -5.03809773E+003 -12.0000 12.1251 12 (P3) n - 1
REM
REM Run started: Fri, 30 Oct 2020 03:14:31 +0000 in /scratch/scratch/uccabz1/launch_tmp/launcher_2020-10-30-02-04-55-117726
REM CASTEP 19.11| from code version Version unavailable
REM Functional Perdew Burke Ernzerhof Relativity Koelling-Harmon Dispersion off
REM Cut-off 340.0000 eV Grid scale 1.7500 Gmax 16.5316 1/A FBSC none
REM MP grid 3 3 3 Offset 0.000 0.000 0.000 No. kpts 8 Spacing 0.07
REM Total runtime: 11308.4 s
REM Overall efficiency: 96.5833 %
REM
REM
REM
REM compiler GCC version 4.9.2
REM options -cpp -iprefix /scratch/UCL/applications/gcc/4.9.2/bin/../lib/gcc/x86_64-unknown-linux-gnu/4.9.2/ -mtune=corei7 -march=x86-64 -g -O2
REM COMMAND_LINE
REM seed -1798172640 -378230470 1353471975 1027043912 -1051615074 276447590 1830507915 -1689774251 713366633 604515054 1554511198 1415164133
REM
REM S 3|1.8|5|6|7|30:31:32(qc=5)
REM O 2|1.5|12|13|15|20:21(qc=5)
REM Li 1|1.3|8|9|10|10U:20(qc=5)
REM Fe 3|2.2|2.0|1.0|8|9|10|40:41:32(qc=5)
REM Fe d:4.0 
REM
CELL 1.54180    7.19469    7.19469    6.12938   90.00000   90.00000  120.00000
LATT -1
SFAC Li O  S  Fe 
Li     1 -0.3989160000000 -0.4959970000000  0.3331600000000 1.0   0.03
Li     1  0.4959970000000  0.0970800000000  0.3331600000000 1.0   0.03
Li     1 -0.0970800000000  0.3989160000000  0.3331600000000 1.0   0.03
Li     1  0.0000000000000 -0.0000000000000  0.2034360000000 1.0   0.05
O      2 -0.3333330000000  0.3333330000000  0.1492200000000 1.0  -0.12
S      3  0.0962150000000  0.3372260000000  0.0555650000000 1.0  -0.14
S      3 -0.3372260000000 -0.2410110000000  0.0555650000000 1.0  -0.14
S      3  0.2410110000000 -0.0962150000000  0.0555650000000 1.0  -0.14
S      3 -0.3333330000000  0.3333330000000 -0.3407090000000 1.0  -0.03
Fe     4 -0.1061780000000 -0.3929980000000 -0.0428440000000 1.0  -3.85
Fe     4  0.3929980000000  0.2868200000000 -0.0428440000000 1.0  -3.85
Fe     4 -0.2868200000000  0.1061780000000 -0.0428440000000 1.0  -3.85
END
