TITL LFSO-Li2Fe3S2O2-201024-022245-f76bab -0.0156 311.082982 -8.93539781E+003 16.0588 19.3538 18 (P3) n - 1
REM
REM Run started: Sat, 24 Oct 2020 08:17:41 +0100 in /scratch/scratch/uccabz1/launch_tmp/launcher_2020-10-24-07-09-43-738572
REM CASTEP 19.11| from code version Version unavailable
REM Functional Perdew Burke Ernzerhof Relativity Koelling-Harmon Dispersion off
REM Cut-off 340.0000 eV Grid scale 1.7500 Gmax 16.5316 1/A FBSC none
REM MP grid 3 3 2 Offset 0.000 0.000 0.000 No. kpts 5 Spacing 0.07
REM Total runtime: 20824.9 s
REM Overall efficiency: 72.5455 %
REM
REM
REM
REM compiler GCC version 4.9.2
REM options -cpp -iprefix /lustre/shared/ucl/apps/gcc/4.9.2/bin/../lib/gcc/x86_64-unknown-linux-gnu/4.9.2/ -mtune=corei7 -march=x86-64 -g -Og
REM COMMAND_LINE
REM seed 826020618 -1615446747 1595042882 -61988631 -464927372 2017046341 -1056167697 1890362752 -916144467 -1223691297 1235989972 -2049643057
REM
REM S 3|1.8|5|6|7|30:31:32(qc=5)
REM O 2|1.5|12|13|15|20:21(qc=5)
REM Li 1|1.3|8|9|10|10U:20(qc=5)
REM Fe 3|2.2|2.0|1.0|8|9|10|40:41:32(qc=5)
REM Fe d:4.0 
REM
CELL 1.54180    5.88947    5.88947   10.35604   90.00000   90.00000  120.00000
LATT -1
SFAC Li O  S  Fe 
Li     1  0.3378020000000 -0.0642740000000  0.4876730000000 1.0  -0.06
Li     1 -0.4020760000000 -0.3378020000000  0.4876730000000 1.0  -0.06
Li     1  0.0642740000000  0.4020760000000  0.4876730000000 1.0  -0.06
Li     1 -0.3333330000000  0.3333330000000  0.0094950000000 1.0  -0.11
O      2  0.0387360000000  0.3401020000000 -0.3270570000000 1.0   0.12
O      2  0.3013660000000 -0.0387360000000 -0.3270570000000 1.0   0.12
O      2 -0.3401020000000 -0.3013660000000 -0.3270570000000 1.0   0.12
O      2  0.3333330000000 -0.3333330000000  0.3772390000000 1.0  -0.09
S      3 -0.2957820000000 -0.3108230000000  0.1377820000000 1.0  -0.47
S      3 -0.0150400000000  0.2957820000000  0.1377820000000 1.0  -0.47
S      3  0.3108230000000  0.0150400000000  0.1377820000000 1.0  -0.47
S      3 -0.3333330000000  0.3333330000000  0.3998330000000 1.0  -0.15
Fe     4 -0.3258640000000  0.0557800000000 -0.2962830000000 1.0   3.61
Fe     4  0.3816450000000  0.3258640000000 -0.2962830000000 1.0   3.61
Fe     4 -0.0557800000000 -0.3816450000000 -0.2962830000000 1.0   3.61
Fe     4  0.0183890000000 -0.3403150000000  0.2577990000000 1.0   2.26
Fe     4 -0.3587040000000 -0.0183890000000  0.2577990000000 1.0   2.26
Fe     4  0.3403150000000  0.3587040000000  0.2577990000000 1.0   2.26
END
