data_image0
_chemical_formula_structural       Li2O2S2Fe3
_chemical_formula_sum              "Li2 O2 S2 Fe3"
_cell_length_a       3.8388
_cell_length_b       6.08289
_cell_length_c       6.09656
_cell_angle_alpha    106.039
_cell_angle_beta     108.262
_cell_angle_gamma    90.0102

_space_group_name_H-M_alt    "P 1"
_space_group_IT_number       1

loop_
  _space_group_symop_operation_xyz
  'x, y, z'

loop_
  _atom_site_type_symbol
  _atom_site_label
  _atom_site_symmetry_multiplicity
  _atom_site_fract_x
  _atom_site_fract_y
  _atom_site_fract_z
  _atom_site_occupancy
  Li  Li1       1.0  0.31999  0.03508  0.14088  1.0000
  Li  Li2       1.0  0.68001  0.96492  0.85912  1.0000
  O   O1        1.0  0.14455  0.88395  0.78765  1.0000
  O   O2        1.0  0.85545  0.11605  0.21235  1.0000
  S   S1        1.0  0.38401  0.68056  0.27252  1.0000
  S   S2        1.0  0.61599  0.31944  0.72748  1.0000
  Fe  Fe1       1.0  0.15971  0.57506  0.81408  1.0000
  Fe  Fe2       1.0  0.84029  0.42494  0.18592  1.0000
  Fe  Fe3       1.0  0.00000  0.00000  0.50000  1.0000
