data_image0
_chemical_formula_structural       Li4O4S4Fe6
_chemical_formula_sum              "Li4 O4 S4 Fe6"
_cell_length_a       3.85985
_cell_length_b       4.05296
_cell_length_c       16.3943
_cell_angle_alpha    90
_cell_angle_beta     90
_cell_angle_gamma    90.0027

_space_group_name_H-M_alt    "P 1"
_space_group_IT_number       1

loop_
  _space_group_symop_operation_xyz
  'x, y, z'

loop_
  _atom_site_type_symbol
  _atom_site_label
  _atom_site_symmetry_multiplicity
  _atom_site_fract_x
  _atom_site_fract_y
  _atom_site_fract_z
  _atom_site_occupancy
  Li  Li1       1.0  0.00631  0.48111  0.30329  1.0000
  Li  Li2       1.0  0.99369  0.51889  0.80329  1.0000
  Li  Li3       1.0  0.00018  0.26004  0.48062  1.0000
  Li  Li4       1.0  0.99982  0.73996  0.98062  1.0000
  O   O1        1.0  0.00493  0.98969  0.29658  1.0000
  O   O2        1.0  0.99507  0.01031  0.79658  1.0000
  O   O3        1.0  0.99722  0.91971  0.55693  1.0000
  O   O4        1.0  0.00278  0.08029  0.05693  1.0000
  S   S1        1.0  0.49539  0.47694  0.68391  1.0000
  S   S2        1.0  0.50461  0.52306  0.18391  1.0000
  S   S3        1.0  0.49852  0.51577  0.91725  1.0000
  S   S4        1.0  0.50148  0.48423  0.41725  1.0000
  Fe  Fe1       1.0  0.49715  0.76446  0.55014  1.0000
  Fe  Fe2       1.0  0.50285  0.23554  0.05014  1.0000
  Fe  Fe3       1.0  0.50516  0.97979  0.32761  1.0000
  Fe  Fe4       1.0  0.49484  0.02021  0.82761  1.0000
  Fe  Fe5       1.0  0.00518  0.94081  0.17390  1.0000
  Fe  Fe6       1.0  0.99482  0.05919  0.67390  1.0000
