data_image0
_chemical_formula_structural       Li2O2S2Fe3
_chemical_formula_sum              "Li2 O2 S2 Fe3"
_cell_length_a       3.6863
_cell_length_b       5.88981
_cell_length_c       6.19281
_cell_angle_alpha    100.338
_cell_angle_beta     90
_cell_angle_gamma    90

_space_group_name_H-M_alt    "P 1"
_space_group_IT_number       1

loop_
  _space_group_symop_operation_xyz
  'x, y, z'

loop_
  _atom_site_type_symbol
  _atom_site_label
  _atom_site_symmetry_multiplicity
  _atom_site_fract_x
  _atom_site_fract_y
  _atom_site_fract_z
  _atom_site_occupancy
  Li  Li1       1.0  0.35898  0.67174  0.41692  1.0000
  Li  Li2       1.0  0.35898  0.32826  0.58308  1.0000
  O   O1        1.0  0.35959  0.67142  0.72672  1.0000
  O   O2        1.0  0.35959  0.32858  0.27328  1.0000
  S   S1        1.0  0.85942  0.77855  0.19875  1.0000
  S   S2        1.0  0.85942  0.22145  0.80125  1.0000
  Fe  Fe1       1.0  0.85957  0.19317  0.20381  1.0000
  Fe  Fe2       1.0  0.85957  0.80683  0.79619  1.0000
  Fe  Fe3       1.0  0.35864  0.50000  0.00000  1.0000
