data_image0
_chemical_formula_structural       Li4O2S3Fe3
_chemical_formula_sum              "Li4 O2 S3 Fe3"
_cell_length_a       3.8137
_cell_length_b       3.99825
_cell_length_c       11.2075
_cell_angle_alpha    100.265
_cell_angle_beta     99.7854
_cell_angle_gamma    90.0583

_space_group_name_H-M_alt    "P 1"
_space_group_IT_number       1

loop_
  _space_group_symop_operation_xyz
  'x, y, z'

loop_
  _atom_site_type_symbol
  _atom_site_label
  _atom_site_symmetry_multiplicity
  _atom_site_fract_x
  _atom_site_fract_y
  _atom_site_fract_z
  _atom_site_occupancy
  Li  Li1       1.0  0.56543  0.43731  0.78030  1.0000
  Li  Li2       1.0  0.78512  0.65701  0.21970  1.0000
  Li  Li3       1.0  0.38617  0.77423  0.41439  1.0000
  Li  Li4       1.0  0.97177  0.35984  0.58561  1.0000
  O   O1        1.0  0.26802  0.64052  0.18544  1.0000
  O   O2        1.0  0.08258  0.45507  0.81456  1.0000
  S   S1        1.0  0.85586  0.22749  0.36252  1.0000
  S   S2        1.0  0.49334  0.86497  0.63748  1.0000
  S   S3        1.0  0.67480  0.04776  0.00000  1.0000
  Fe  Fe1       1.0  0.06905  0.94232  0.78864  1.0000
  Fe  Fe2       1.0  0.28041  0.15368  0.21136  1.0000
  Fe  Fe3       1.0  0.17647  0.54672  0.00000  1.0000
