data_image0
_chemical_formula_structural       Li4O2S3Fe3
_chemical_formula_sum              "Li4 O2 S3 Fe3"
_cell_length_a       3.79542
_cell_length_b       5.94041
_cell_length_c       9.36765
_cell_angle_alpha    89.9454
_cell_angle_beta     78.3121
_cell_angle_gamma    89.7305

_space_group_name_H-M_alt    "P 1"
_space_group_IT_number       1

loop_
  _space_group_symop_operation_xyz
  'x, y, z'

loop_
  _atom_site_type_symbol
  _atom_site_label
  _atom_site_symmetry_multiplicity
  _atom_site_fract_x
  _atom_site_fract_y
  _atom_site_fract_z
  _atom_site_occupancy
  Li  Li1       1.0  0.80151  0.43120  0.57813  1.0000
  Li  Li2       1.0  0.37964  0.43120  0.42187  1.0000
  Li  Li3       1.0  0.98076  0.61693  0.21774  1.0000
  Li  Li4       1.0  0.19849  0.61693  0.78226  1.0000
  O   O1        1.0  0.90748  0.40445  0.36881  1.0000
  O   O2        1.0  0.27628  0.40445  0.63119  1.0000
  S   S1        1.0  0.47355  0.88981  0.22868  1.0000
  S   S2        1.0  0.70223  0.88981  0.77132  1.0000
  S   S3        1.0  0.07257  0.34366  1.00000  1.0000
  Fe  Fe1       1.0  0.20903  0.14277  0.74673  1.0000
  Fe  Fe2       1.0  0.95576  0.14277  0.25327  1.0000
  Fe  Fe3       1.0  0.56829  0.09106  1.00000  1.0000
