data_image0
_chemical_formula_structural       Li4O2S3Fe3
_chemical_formula_sum              "Li4 O2 S3 Fe3"
_cell_length_a       3.79274
_cell_length_b       7.71514
_cell_length_c       7.71514
_cell_angle_alpha    104.459
_cell_angle_beta     99.6641
_cell_angle_gamma    99.6641

_space_group_name_H-M_alt    "P 1"
_space_group_IT_number       1

loop_
  _space_group_symop_operation_xyz
  'x, y, z'

loop_
  _atom_site_type_symbol
  _atom_site_label
  _atom_site_symmetry_multiplicity
  _atom_site_fract_x
  _atom_site_fract_y
  _atom_site_fract_z
  _atom_site_occupancy
  Li  Li1       1.0  0.53382  0.58313  0.84014  1.0000
  Li  Li2       1.0  0.46618  0.15986  0.41687  1.0000
  Li  Li3       1.0  0.19018  0.87679  0.96698  1.0000
  Li  Li4       1.0  0.80982  0.03302  0.12321  1.0000
  O   O1        1.0  0.64639  0.83801  0.89710  1.0000
  O   O2        1.0  0.35361  0.10290  0.16199  1.0000
  S   S1        1.0  0.05198  0.94951  0.50736  1.0000
  S   S2        1.0  0.94802  0.49264  0.05049  1.0000
  S   S3        1.0  0.50000  0.50079  0.49921  1.0000
  Fe  Fe1       1.0  0.57561  0.85654  0.65577  1.0000
  Fe  Fe2       1.0  0.42439  0.34423  0.14346  1.0000
  Fe  Fe3       1.0  0.00000  0.62765  0.37235  1.0000
