data_image0
_chemical_formula_structural       Li4O2S3Fe3
_chemical_formula_sum              "Li4 O2 S3 Fe3"
_cell_length_a       3.76312
_cell_length_b       3.97159
_cell_length_c       13.3457
_cell_angle_alpha    90
_cell_angle_beta     90
_cell_angle_gamma    90.0914

_space_group_name_H-M_alt    "P 1"
_space_group_IT_number       1

loop_
  _space_group_symop_operation_xyz
  'x, y, z'

loop_
  _atom_site_type_symbol
  _atom_site_label
  _atom_site_symmetry_multiplicity
  _atom_site_fract_x
  _atom_site_fract_y
  _atom_site_fract_z
  _atom_site_occupancy
  Li  Li1       1.0  0.04843  0.88293  0.82620  1.0000
  Li  Li2       1.0  0.04843  0.88293  0.17380  1.0000
  Li  Li3       1.0  0.54532  0.89276  0.31992  1.0000
  Li  Li4       1.0  0.54532  0.89276  0.68008  1.0000
  O   O1        1.0  0.04487  0.89175  0.34776  1.0000
  O   O2        1.0  0.04487  0.89175  0.65224  1.0000
  S   S1        1.0  0.54582  0.39238  0.80041  1.0000
  S   S2        1.0  0.54582  0.39238  0.19959  1.0000
  S   S3        1.0  0.54094  0.39202  0.50000  1.0000
  Fe  Fe1       1.0  0.04696  0.39192  0.32647  1.0000
  Fe  Fe2       1.0  0.04696  0.39192  0.67353  1.0000
  Fe  Fe3       1.0  0.03850  0.89464  0.50000  1.0000
