data_image0
_chemical_formula_structural       Li2O4SFe4
_chemical_formula_sum              "Li2 O4 S1 Fe4"
_cell_length_a       3.51461
_cell_length_b       5.85867
_cell_length_c       8.74273
_cell_angle_alpha    84.3295
_cell_angle_beta     78.4818
_cell_angle_gamma    72.6155

_space_group_name_H-M_alt    "P 1"
_space_group_IT_number       1

loop_
  _space_group_symop_operation_xyz
  'x, y, z'

loop_
  _atom_site_type_symbol
  _atom_site_label
  _atom_site_symmetry_multiplicity
  _atom_site_fract_x
  _atom_site_fract_y
  _atom_site_fract_z
  _atom_site_occupancy
  Li  Li1       1.0  0.17167  0.16279  0.99396  1.0000
  Li  Li2       1.0  0.82833  0.83721  0.00604  1.0000
  O   O1        1.0  0.01879  0.64436  0.81415  1.0000
  O   O2        1.0  0.98121  0.35564  0.18585  1.0000
  O   O3        1.0  0.72950  0.15789  0.88171  1.0000
  O   O4        1.0  0.27050  0.84211  0.11829  1.0000
  S   S1        1.0  0.50000  0.00000  0.50000  1.0000
  Fe  Fe1       1.0  0.59173  0.49582  0.81573  1.0000
  Fe  Fe2       1.0  0.40827  0.50418  0.18427  1.0000
  Fe  Fe3       1.0  0.08291  0.02550  0.30794  1.0000
  Fe  Fe4       1.0  0.91709  0.97450  0.69206  1.0000
