data_image0
_chemical_formula_structural       Li2O4SFe4
_chemical_formula_sum              "Li2 O4 S1 Fe4"
_cell_length_a       5.79005
_cell_length_b       5.88986
_cell_length_c       5.9328
_cell_angle_alpha    80.3136
_cell_angle_beta     60.7928
_cell_angle_gamma    69.8299

_space_group_name_H-M_alt    "P 1"
_space_group_IT_number       1

loop_
  _space_group_symop_operation_xyz
  'x, y, z'

loop_
  _atom_site_type_symbol
  _atom_site_label
  _atom_site_symmetry_multiplicity
  _atom_site_fract_x
  _atom_site_fract_y
  _atom_site_fract_z
  _atom_site_occupancy
  Li  Li1       1.0  0.73172  0.33314  0.94333  1.0000
  Li  Li2       1.0  0.32495  0.66686  0.94333  1.0000
  O   O1        1.0  0.74176  0.32644  0.26517  1.0000
  O   O2        1.0  0.99307  0.67356  0.26517  1.0000
  O   O3        1.0  0.43756  0.31293  0.89627  1.0000
  O   O4        1.0  0.66616  0.68707  0.89627  1.0000
  S   S1        1.0  0.23124  0.00000  0.53752  1.0000
  Fe  Fe1       1.0  0.11645  0.28683  0.21965  1.0000
  Fe  Fe2       1.0  0.66391  0.71317  0.21965  1.0000
  Fe  Fe3       1.0  0.48603  0.22501  0.58268  1.0000
  Fe  Fe4       1.0  0.93129  0.77499  0.58268  1.0000
