data_image0
_chemical_formula_structural       Li4O4SFe3
_chemical_formula_sum              "Li4 O4 S1 Fe3"
_cell_length_a       3.87615
_cell_length_b       5.29463
_cell_length_c       8.16509
_cell_angle_alpha    89.0404
_cell_angle_beta     89.911
_cell_angle_gamma    68.7085

_space_group_name_H-M_alt    "P 1"
_space_group_IT_number       1

loop_
  _space_group_symop_operation_xyz
  'x, y, z'

loop_
  _atom_site_type_symbol
  _atom_site_label
  _atom_site_symmetry_multiplicity
  _atom_site_fract_x
  _atom_site_fract_y
  _atom_site_fract_z
  _atom_site_occupancy
  Li  Li1       1.0  0.55729  0.88178  0.16949  1.0000
  Li  Li2       1.0  0.44271  0.11822  0.83051  1.0000
  Li  Li3       1.0  0.77735  0.44380  0.59559  1.0000
  Li  Li4       1.0  0.22265  0.55620  0.40441  1.0000
  O   O1        1.0  0.39141  0.21704  0.29162  1.0000
  O   O2        1.0  0.60859  0.78296  0.70838  1.0000
  O   O3        1.0  0.67938  0.64341  0.36607  1.0000
  O   O4        1.0  0.32062  0.35659  0.63393  1.0000
  S   S1        1.0  0.00000  0.00000  0.00000  1.0000
  Fe  Fe1       1.0  0.85147  0.29800  0.23477  1.0000
  Fe  Fe2       1.0  0.14853  0.70200  0.76523  1.0000
  Fe  Fe3       1.0  0.50000  0.00000  0.50000  1.0000
