data_image0
_chemical_formula_structural       Li4O4SFe3
_chemical_formula_sum              "Li4 O4 S1 Fe3"
_cell_length_a       3.69807
_cell_length_b       5.57514
_cell_length_c       8.98135
_cell_angle_alpha    89.7478
_cell_angle_beta     89.2397
_cell_angle_gamma    70.6306

_space_group_name_H-M_alt    "P 1"
_space_group_IT_number       1

loop_
  _space_group_symop_operation_xyz
  'x, y, z'

loop_
  _atom_site_type_symbol
  _atom_site_label
  _atom_site_symmetry_multiplicity
  _atom_site_fract_x
  _atom_site_fract_y
  _atom_site_fract_z
  _atom_site_occupancy
  Li  Li1       1.0  0.17133  0.63545  0.82207  1.0000
  Li  Li2       1.0  0.19322  0.63545  0.17793  1.0000
  Li  Li3       1.0  0.82867  0.36455  0.17793  1.0000
  Li  Li4       1.0  0.80678  0.36455  0.82207  1.0000
  O   O1        1.0  0.64470  0.73306  0.16657  1.0000
  O   O2        1.0  0.62224  0.73306  0.83343  1.0000
  O   O3        1.0  0.35530  0.26694  0.83343  1.0000
  O   O4        1.0  0.37776  0.26694  0.16657  1.0000
  S   S1        1.0  0.00000  0.00000  0.50000  1.0000
  Fe  Fe1       1.0  0.49288  0.00000  0.67901  1.0000
  Fe  Fe2       1.0  0.50712  1.00000  0.32099  1.0000
  Fe  Fe3       1.0  0.50000  1.00000  0.00000  1.0000
