data_image0
_chemical_formula_structural       Li2O3SFe3
_chemical_formula_sum              "Li2 O3 S1 Fe3"
_cell_length_a       4.27198
_cell_length_b       5.46305
_cell_length_c       5.76273
_cell_angle_alpha    117.661
_cell_angle_beta     111.696
_cell_angle_gamma    90.0687

_space_group_name_H-M_alt    "P 1"
_space_group_IT_number       1

loop_
  _space_group_symop_operation_xyz
  'x, y, z'

loop_
  _atom_site_type_symbol
  _atom_site_label
  _atom_site_symmetry_multiplicity
  _atom_site_fract_x
  _atom_site_fract_y
  _atom_site_fract_z
  _atom_site_occupancy
  Li  Li1       1.0  0.28385  0.14510  0.06139  1.0000
  Li  Li2       1.0  0.71615  0.85490  0.93861  1.0000
  O   O1        1.0  0.22191  0.74025  0.93774  1.0000
  O   O2        1.0  0.77809  0.25975  0.06226  1.0000
  O   O3        1.0  0.50000  0.50000  0.50000  1.0000
  S   S1        1.0  0.00000  0.00000  0.50000  1.0000
  Fe  Fe1       1.0  0.61266  0.29264  0.72388  1.0000
  Fe  Fe2       1.0  0.38734  0.70736  0.27612  1.0000
  Fe  Fe3       1.0  0.00000  0.50000  0.50000  1.0000
