data_image0
_chemical_formula_structural       Li2O3SFe3
_chemical_formula_sum              "Li2 O3 S1 Fe3"
_cell_length_a       3.56376
_cell_length_b       5.28333
_cell_length_c       6.78928
_cell_angle_alpha    90
_cell_angle_beta     103.446
_cell_angle_gamma    90

_space_group_name_H-M_alt    "P 1"
_space_group_IT_number       1

loop_
  _space_group_symop_operation_xyz
  'x, y, z'

loop_
  _atom_site_type_symbol
  _atom_site_label
  _atom_site_symmetry_multiplicity
  _atom_site_fract_x
  _atom_site_fract_y
  _atom_site_fract_z
  _atom_site_occupancy
  Li  Li1       1.0  0.10499  0.55287  0.28757  1.0000
  Li  Li2       1.0  0.89501  0.55287  0.71243  1.0000
  O   O1        1.0  0.82585  0.20160  0.71917  1.0000
  O   O2        1.0  0.17415  0.20160  0.28083  1.0000
  O   O3        1.0  0.00000  0.75285  0.50000  1.0000
  S   S1        1.0  0.50000  0.74772  0.00000  1.0000
  Fe  Fe1       1.0  0.32962  0.01075  0.66360  1.0000
  Fe  Fe2       1.0  0.67038  0.01075  0.33640  1.0000
  Fe  Fe3       1.0  0.00000  0.08266  0.00000  1.0000
