data_image0
_chemical_formula_structural       Li2O3SFe3
_chemical_formula_sum              "Li2 O3 S1 Fe3"
_cell_length_a       4.95067
_cell_length_b       5.42642
_cell_length_c       5.63937
_cell_angle_alpha    117.894
_cell_angle_beta     115.112
_cell_angle_gamma    91.7332

_space_group_name_H-M_alt    "P 1"
_space_group_IT_number       1

loop_
  _space_group_symop_operation_xyz
  'x, y, z'

loop_
  _atom_site_type_symbol
  _atom_site_label
  _atom_site_symmetry_multiplicity
  _atom_site_fract_x
  _atom_site_fract_y
  _atom_site_fract_z
  _atom_site_occupancy
  Li  Li1       1.0  0.64583  0.94914  0.30543  1.0000
  Li  Li2       1.0  0.34041  0.64371  0.69457  1.0000
  O   O1        1.0  0.02010  0.26565  0.43822  1.0000
  O   O2        1.0  0.58188  0.82743  0.56178  1.0000
  O   O3        1.0  0.35514  0.03718  1.00000  1.0000
  S   S1        1.0  0.80485  0.53474  0.00000  1.0000
  Fe  Fe1       1.0  0.31534  0.11890  0.66450  1.0000
  Fe  Fe2       1.0  0.65085  0.45441  0.33550  1.0000
  Fe  Fe3       1.0  0.93807  0.06524  1.00000  1.0000
