data_image0
_chemical_formula_structural       Li4O6S2Fe6
_chemical_formula_sum              "Li4 O6 S2 Fe6"
_cell_length_a       5.67301
_cell_length_b       7.05878
_cell_length_c       7.05878
_cell_angle_alpha    120
_cell_angle_beta     90
_cell_angle_gamma    90

_space_group_name_H-M_alt    "P 1"
_space_group_IT_number       1

loop_
  _space_group_symop_operation_xyz
  'x, y, z'

loop_
  _atom_site_type_symbol
  _atom_site_label
  _atom_site_symmetry_multiplicity
  _atom_site_fract_x
  _atom_site_fract_y
  _atom_site_fract_z
  _atom_site_occupancy
  Li  Li1       1.0  0.59494  0.53905  0.09262  1.0000
  Li  Li2       1.0  0.59494  0.55357  0.46095  1.0000
  Li  Li3       1.0  0.59494  0.90738  0.44643  1.0000
  Li  Li4       1.0  0.06370  0.33333  0.66667  1.0000
  O   O1        1.0  0.51350  0.84066  0.67807  1.0000
  O   O2        1.0  0.51350  0.83741  0.15934  1.0000
  O   O3        1.0  0.51350  0.32193  0.16259  1.0000
  O   O4        1.0  0.01938  0.16288  0.84962  1.0000
  O   O5        1.0  0.01938  0.68673  0.83712  1.0000
  O   O6        1.0  0.01938  0.15038  0.31327  1.0000
  S   S1        1.0  0.54505  0.33333  0.66667  1.0000
  S   S2        1.0  0.97687  0.66667  0.33333  1.0000
  Fe  Fe1       1.0  0.68324  0.12530  0.85217  1.0000
  Fe  Fe2       1.0  0.68324  0.72686  0.87470  1.0000
  Fe  Fe3       1.0  0.68324  0.14783  0.27314  1.0000
  Fe  Fe4       1.0  0.15825  0.83031  0.13311  1.0000
  Fe  Fe5       1.0  0.15825  0.30280  0.16969  1.0000
  Fe  Fe6       1.0  0.15825  0.86689  0.69720  1.0000
