TITL LFSO-Li6FeSO3-200909-230758-13a3f4 -3.3726 623.433603 -3.68327476E+003 4.12170 4.75921 11 (R3) n - 1
REM
REM Run started: Thu, 10 Sep 2020 17:53:15 +0100 in /lustre/scratch/uccabz1/launch_tmp/launcher_2020-09-09-22-07-55-273372
REM CASTEP 20.1 from code version af48c487+ pr-geom-scf-spinfix Tue Jun 2 15:39:59 2020 +0100
REM Functional Perdew Burke Ernzerhof Relativity Koelling-Harmon Dispersion off
REM Cut-off 340.0000 eV Grid scale 1.7500 Gmax 16.5316 1/A FBSC none
REM MP grid 4 4 4 Offset 0.000 0.000 0.000 No. kpts 12 Spacing 0.07
REM Total runtime: 169473 s
REM Overall efficiency: 96.75 %
REM
REM
REM
REM compiler GCC version 4.9.2
REM options -cpp -iprefix /lustre/shared/ucl/apps/gcc/4.9.2/bin/../lib/gcc/x86_64-unknown-linux-gnu/4.9.2/ -mtune=corei7 -march=x86-64 -g -Og
REM COMMAND_LINE
REM seed -1808221580 1812360079 -1788709876 2093567692 -1595778838 -74436602 1618525595 -1711982490 409709375 1480373726 2013923706 -709962895
REM
REM S 3|1.8|5|6|7|30:31:32(qc=5)
REM O 2|1.5|12|13|15|20:21(qc=5)
REM Li 1|1.3|8|9|10|10U:20(qc=5)
REM Fe 3|2.2|2.0|1.0|8|9|10|40:41:32(qc=5)
REM 
CELL 1.54180   27.18677   27.18677   27.18677   10.89388   10.89388   10.89388
LATT -1
SFAC Li O  S  Fe 
Li     1  0.7710320000000 -0.6068640000000  0.1438670000000 1.0  -0.07
Li     1 -0.6068640000000  0.1438670000000  0.7710320000000 1.0  -0.07
Li     1  0.1438670000000  0.7710320000000 -0.6068640000000 1.0  -0.07
Li     1 -0.1951860000000  0.1706330000000 -0.5663720000000 1.0  -0.05
Li     1  0.1706330000000 -0.5663720000000 -0.1951860000000 1.0  -0.05
Li     1 -0.5663720000000 -0.1951860000000  0.1706330000000 1.0  -0.05
O      2 -0.2079270000000  0.4687910000000  0.1175840000000 1.0   0.28
O      2  0.4687910000000  0.1175840000000 -0.2079270000000 1.0   0.28
O      2  0.1175840000000 -0.2079270000000  0.4687910000000 1.0   0.28
S      3 -0.2444150000000 -0.2444150000000 -0.2444150000000 1.0   0.20
Fe     4 -0.2159410000000 -0.2159410000000 -0.2159410000000 1.0   3.45
END
