TITL LFSO-Li4Fe2SO3-200910-194958-8e6e4f 0.0779 469.287230 -4.14282741E+003 0.219650E-01 1.65261 10 (Cmm2) n - 1
REM
REM Run started: Fri, 11 Sep 2020 00:40:52 +0100 in /lustre/scratch/uccabz1/launch_tmp/launcher_2020-09-10-18-49-56-461193
REM CASTEP 20.1 from code version af48c487+ pr-geom-scf-spinfix Tue Jun 2 15:39:59 2020 +0100
REM Functional Perdew Burke Ernzerhof Relativity Koelling-Harmon Dispersion off
REM Cut-off 340.0000 eV Grid scale 1.7500 Gmax 16.5316 1/A FBSC none
REM MP grid 3 3 3 Offset 0.000 0.000 0.000 No. kpts 8 Spacing 0.07
REM Total runtime: 25483.3 s
REM Overall efficiency: 95.9231 %
REM
REM
REM
REM compiler GCC version 4.9.2
REM options -cpp -iprefix /lustre/shared/ucl/apps/gcc/4.9.2/bin/../lib/gcc/x86_64-unknown-linux-gnu/4.9.2/ -mtune=corei7 -march=x86-64 -g -Og
REM COMMAND_LINE
REM seed -1916621480 -241420535 -1206367177 1579466037 -1905660720 -455182446 617056875 648482577 -303275397 310025598 635446303 -155410198
REM
REM S 3|1.8|5|6|7|30:31:32(qc=5)
REM O 2|1.5|12|13|15|20:21(qc=5)
REM Li 1|1.3|8|9|10|10U:20(qc=5)
REM Fe 3|2.2|2.0|1.0|8|9|10|40:41:32(qc=5)
REM 
CELL 1.54180   17.20042   17.20042    5.60034   90.00000   90.00000   16.45335
LATT -1
SFAC Li O  S  Fe 
Li     1  0.7015010000000  0.2129720000000 -0.4258150000000 1.0   0.01
Li     1 -0.7015010000000 -0.2129720000000 -0.4258150000000 1.0   0.01
Li     1 -0.2129720000000 -0.7015010000000 -0.4258150000000 1.0   0.01
Li     1  0.2129720000000  0.7015010000000 -0.4258150000000 1.0   0.01
O      2  0.4604010000000  0.4604010000000 -0.1904950000000 1.0  -0.03
O      2 -0.4604010000000 -0.4604010000000 -0.1904950000000 1.0  -0.03
O      2  0.0000000000000  0.0000000000000 -0.3013350000000 1.0  -0.02
S      3 -0.5000000000000 -0.5000000000000  0.2897680000000 1.0   0.01
Fe     4 -0.2675340000000  0.2675340000000 -0.0491850000000 1.0   0.02
Fe     4  0.2675340000000 -0.2675340000000 -0.0491850000000 1.0   0.02
END
