TITL LFSO-Li2Fe3SO3-200912-165931-05664c 0.0478 115.514418 -4.60465304E+003 8.60375 8.93756 9 (Imm2) n - 1
REM
REM Run started: Sat, 12 Sep 2020 19:29:50 +0100 in /lustre/scratch/uccabz1/launch_tmp/launcher_2020-09-12-15-59-29-925896
REM CASTEP 20.1 from code version af48c487+ pr-geom-scf-spinfix Tue Jun 2 15:39:59 2020 +0100
REM Functional Perdew Burke Ernzerhof Relativity Koelling-Harmon Dispersion off
REM Cut-off 340.0000 eV Grid scale 1.7500 Gmax 16.5316 1/A FBSC none
REM MP grid 3 5 5 Offset 0.000 0.000 0.000 No. kpts 24 Spacing 0.07
REM Total runtime: 9983.09 s
REM Overall efficiency: 96.5 %
REM
REM
REM
REM compiler GCC version 4.9.2
REM options -cpp -iprefix /lustre/shared/ucl/apps/gcc/4.9.2/bin/../lib/gcc/x86_64-unknown-linux-gnu/4.9.2/ -mtune=corei7 -march=x86-64 -g -Og
REM COMMAND_LINE
REM seed 2127225357 1470769564 -643938242 1542127152 1208170828 -1692945366 -1963257558 913552688 1737607350 -969009422 417997426 -1064665684
REM
REM S 3|1.8|5|6|7|30:31:32(qc=5)
REM O 2|1.5|12|13|15|20:21(qc=5)
REM Li 1|1.3|8|9|10|10U:20(qc=5)
REM Fe 3|2.2|2.0|1.0|8|9|10|40:41:32(qc=5)
REM 
CELL 1.54180    5.15595    6.96526    6.96526   29.99717   68.27706   68.27706
LATT -1
SFAC Li O  S  Fe 
Li     1 -0.0836410000000  0.3522090000000  0.3522090000000 1.0  -0.02
Li     1  0.3792230000000  0.3522090000000  0.3522090000000 1.0  -0.02
O      2 -0.2644130000000  0.0590290000000 -0.5302040000000 1.0   0.03
O      2 -0.2644130000000 -0.5302040000000  0.0590290000000 1.0   0.03
O      2  0.0980570000000 -0.0980570000000 -0.0980570000000 1.0   0.22
S      3  0.4337530000000 -0.4337530000000 -0.4337530000000 1.0   0.13
Fe     4  0.1972790000000  0.0277130000000  0.0277130000000 1.0   2.87
Fe     4 -0.2527060000000  0.0277130000000  0.0277130000000 1.0   2.87
Fe     4 -0.1378270000000 -0.3621730000000 -0.3621730000000 1.0   2.49
END
