TITL LFSO-Li5FeS2O2-200920-231520-30aec0 0.0155 143.405984 -3.34804015E+003 4.99727 5.04178 10 (C2) n - 1
REM
REM Run started: Mon, 21 Sep 2020 07:37:30 +0100 in /lustre/scratch/uccabz1/launch_tmp/launcher_2020-09-20-22-15-19-341972
REM CASTEP 20.1 from code version af48c487+ pr-geom-scf-spinfix Tue Jun 2 15:39:59 2020 +0100
REM Functional Perdew Burke Ernzerhof Relativity Koelling-Harmon Dispersion off
REM Cut-off 340.0000 eV Grid scale 1.7500 Gmax 16.5316 1/A FBSC none
REM MP grid 5 5 4 Offset 0.000 0.000 0.000 No. kpts 30 Spacing 0.07
REM Total runtime: 33169.7 s
REM Overall efficiency: 95.3077 %
REM
REM
REM
REM compiler GCC version 4.9.2
REM options -cpp -iprefix /lustre/shared/ucl/apps/gcc/4.9.2/bin/../lib/gcc/x86_64-unknown-linux-gnu/4.9.2/ -mtune=corei7 -march=x86-64 -g -Og
REM COMMAND_LINE
REM seed -1034142684 -1678844939 1680297577 -1128569474 830273856 -1757617716 -192793872 975056978 -1698998062 -732885128 1171024985 -999725664
REM
REM S 3|1.8|5|6|7|30:31:32(qc=5)
REM O 2|1.5|12|13|15|20:21(qc=5)
REM Li 1|1.3|8|9|10|10U:20(qc=5)
REM Fe 3|2.2|2.0|1.0|8|9|10|40:41:32(qc=5)
REM 
CELL 1.54180    7.46010    7.46010   11.92981   27.80295   27.80295   40.85174
LATT -1
SFAC Li O  S  Fe 
Li     1 -0.3751320000000 -0.0925680000000 -0.0130100000000 1.0   0.01
Li     1  0.0925680000000  0.3751320000000  0.0130100000000 1.0   0.01
Li     1  0.0298490000000 -0.2661900000000  0.2510770000000 1.0   0.02
Li     1  0.2661900000000 -0.0298490000000 -0.2510770000000 1.0   0.02
Li     1 -0.1433830000000  0.1433830000000  0.5000000000000 1.0  -0.06
O      2 -0.1713770000000 -0.3880830000000  0.1699200000000 1.0   0.33
O      2  0.3880830000000  0.1713770000000 -0.1699200000000 1.0   0.33
S      3 -0.6746990000000  0.0526640000000  0.4399740000000 1.0   0.25
S      3 -0.0526640000000  0.6746990000000 -0.4399740000000 1.0   0.25
Fe     4  0.3769780000000 -0.3769780000000  0.5000000000000 1.0   3.82
END
