TITL LFSO-Li3Fe3S4O2-200929-203409-a2b5a7 -0.1502 668.168938 -5.28225723E+003 -8.99891 9.37754 12 (C2) n - 1
REM
REM Run started: Thu, 01 Oct 2020 13:35:03 +0100 in /lustre/scratch/uccabz1/launch_tmp/launcher_2020-10-01-07-16-08-091630
REM CASTEP 20.1 from code version af48c487+ pr-geom-scf-spinfix Tue Jun 2 15:39:59 2020 +0100
REM Functional Perdew Burke Ernzerhof Relativity Koelling-Harmon Dispersion off
REM Cut-off 340.0000 eV Grid scale 1.7500 Gmax 16.5316 1/A FBSC none
REM MP grid 3 3 3 Offset 0.000 0.000 0.000 No. kpts 10 Spacing 0.07
REM Total runtime: 110741 s
REM Overall efficiency: 61.4167 %
REM
REM
REM
REM compiler GCC version 4.9.2
REM options -cpp -iprefix /lustre/shared/ucl/apps/gcc/4.9.2/bin/../lib/gcc/x86_64-unknown-linux-gnu/4.9.2/ -mtune=corei7 -march=x86-64 -g -Og
REM COMMAND_LINE
REM seed -86128504 773323938 -672052509 223223307 673450943 -1230461454 1245917149 723781245 -916074504 -1931176074 1128503273 -2008304368
REM
REM S 3|1.8|5|6|7|30:31:32(qc=5)
REM O 2|1.5|12|13|15|20:21(qc=5)
REM Li 1|1.3|8|9|10|10U:20(qc=5)
REM Fe 3|2.2|2.0|1.0|8|9|10|40:41:32(qc=5)
REM 
CELL 1.54180   16.17129   20.40876   20.40876   15.91085   22.59216   22.59216
LATT -1
SFAC Li O  S  Fe 
Li     1 -0.2853850000000 -0.3360130000000  0.0571150000000 1.0  -0.01
Li     1  0.2853850000000 -0.0571150000000  0.3360130000000 1.0  -0.01
Li     1 -0.5000000000000 -0.2214410000000  0.2214410000000 1.0  -0.01
O      2  0.3248770000000  0.1202680000000  0.0584990000000 1.0  -0.20
O      2 -0.3248770000000 -0.0584990000000 -0.1202680000000 1.0  -0.20
S      3  0.4544220000000  0.4500820000000 -0.5073980000000 1.0  -0.29
S      3 -0.4544220000000  0.5073980000000 -0.4500820000000 1.0  -0.29
S      3 -0.0367070000000 -0.1853980000000  0.6627630000000 1.0  -0.11
S      3  0.0367070000000 -0.6627630000000  0.1853980000000 1.0  -0.11
Fe     4  0.2066160000000  0.4354400000000 -0.1214310000000 1.0  -2.57
Fe     4 -0.2066160000000  0.1214310000000 -0.4354400000000 1.0  -2.57
Fe     4  0.5000000000000  0.2500520000000 -0.2500520000000 1.0  -2.62
END
