TITL LFSO-Li4Fe3S2O3-200928-045623-f2f562 0.0126 181.854199 -5.31141753E+003 8.58336 8.85954 12 (P-1) n - 1
REM
REM Run started: Tue, 29 Sep 2020 19:53:33 +0100 in /scratch/scratch/uccabz1/launch_tmp/launcher_2020-09-28-03-56-20-348752
REM CASTEP 19.11| from code version Version unavailable
REM Functional Perdew Burke Ernzerhof Relativity Koelling-Harmon Dispersion off
REM Cut-off 340.0000 eV Grid scale 1.7500 Gmax 16.5316 1/A FBSC none
REM MP grid 5 5 3 Offset 0.000 0.000 0.000 No. kpts 38 Spacing 0.07
REM Total runtime: 103574 s
REM Overall efficiency: 98.6667 %
REM
REM
REM
REM compiler GCC version 4.9.2
REM options -cpp -iprefix /scratch/UCL/applications/gcc/4.9.2/bin/../lib/gcc/x86_64-unknown-linux-gnu/4.9.2/ -mtune=corei7 -march=x86-64 -g -O2
REM COMMAND_LINE
REM seed 376407832 -574035182 -991218246 -941220958 -1267053107 1755135114 -2108546973 -44322838 1497488874 -1685536872 456270794 -1046863837
REM
REM S 3|1.8|5|6|7|30:31:32(qc=5)
REM O 2|1.5|12|13|15|20:21(qc=5)
REM Li 1|1.3|8|9|10|10U:20(qc=5)
REM Fe 3|2.2|2.0|1.0|8|9|10|40:41:32(qc=5)
REM 
CELL 1.54180    6.57352    9.86911   13.21574   27.77484   42.88592   27.86508
LATT -1
SFAC Li O  S  Fe 
Li     1 -0.1118530000000 -0.3714240000000  0.3163140000000 1.0  -0.03
Li     1  0.1118530000000  0.3714240000000 -0.3163140000000 1.0  -0.03
Li     1 -0.4005010000000  0.0735630000000  0.2862490000000 1.0   0.01
Li     1  0.4005010000000 -0.0735630000000 -0.2862490000000 1.0   0.01
O      2  0.0292890000000 -0.3858240000000 -0.3126610000000 1.0   0.19
O      2 -0.0292890000000  0.3858240000000  0.3126610000000 1.0   0.19
O      2  0.0000000000000 -0.5000000000000  0.5000000000000 1.0   0.14
S      3 -0.4069700000000 -0.4585350000000  0.0800490000000 1.0   0.14
S      3  0.4069700000000  0.4585350000000 -0.0800490000000 1.0   0.14
Fe     4 -0.1388300000000  0.5666190000000  0.0993660000000 1.0   2.42
Fe     4  0.1388300000000 -0.5666190000000 -0.0993660000000 1.0   2.42
Fe     4  0.0000000000000  0.0000000000000 -0.5000000000000 1.0   2.99
END
