TITL LFSO-Li6FeS3O-200910-005702-306e7b 0.4462 156.960350 -3.41233995E+003 2.11147 2.42082 11 (P-1) n - 1
REM
REM Run started: Thu, 10 Sep 2020 13:07:45 +0100 in /lustre/scratch/uccabz1/launch_tmp/launcher_2020-09-10-10-14-40-694580
REM CASTEP 20.1 from code version af48c487+ pr-geom-scf-spinfix Tue Jun 2 15:39:59 2020 +0100
REM Functional Perdew Burke Ernzerhof Relativity Koelling-Harmon Dispersion off
REM Cut-off 340.0000 eV Grid scale 1.7500 Gmax 16.5316 1/A FBSC none
REM MP grid 9 4 3 Offset 0.000 0.000 0.000 No. kpts 60 Spacing 0.07
REM Total runtime: 40294.7 s
REM Overall efficiency: 97.7273 %
REM
REM
REM
REM compiler GCC version 4.9.2
REM options -cpp -iprefix /lustre/shared/ucl/apps/gcc/4.9.2/bin/../lib/gcc/x86_64-unknown-linux-gnu/4.9.2/ -mtune=corei7 -march=x86-64 -g -Og
REM COMMAND_LINE
REM seed -633599695 -1519578361 -1805971390 -1154787439 535883140 1244603519 1013327445 -683257437 1139902530 1487236408 -914430004 -1042786851
REM
REM S 3|1.8|5|6|7|30:31:32(qc=5)
REM O 2|1.5|12|13|15|20:21(qc=5)
REM Li 1|1.3|8|9|10|10U:20(qc=5)
REM Fe 3|2.2|2.0|1.0|8|9|10|40:41:32(qc=5)
REM 
CELL 1.54180    3.49033   13.76042   19.50039  158.44138  150.86548   28.95878
LATT -1
SFAC Li O  S  Fe 
Li     1  0.0985550000000  0.3486090000000 -0.4417970000000 1.0  -0.00
Li     1 -0.0985550000000 -0.3486090000000  0.4417970000000 1.0  -0.00
Li     1  0.6927210000000  0.1450550000000 -0.2284200000000 1.0  -0.00
Li     1 -0.6927210000000 -0.1450550000000  0.2284200000000 1.0  -0.00
Li     1 -0.5438410000000  0.5175050000000 -0.1337580000000 1.0  -0.03
Li     1  0.5438410000000 -0.5175050000000  0.1337580000000 1.0  -0.03
O      2 -0.5000000000000 -0.5000000000000  0.0000000000000 1.0   0.02
S      3  0.1217200000000 -0.2137360000000 -0.2269530000000 1.0  -0.04
S      3 -0.1217200000000  0.2137360000000  0.2269530000000 1.0  -0.04
S      3 -0.5000000000000  0.0000000000000  0.5000000000000 1.0   0.01
Fe     4  0.0000000000000  0.0000000000000  0.0000000000000 1.0   2.23
END
