TITL LFSO-Li3Fe3S2O4-200928-153154-2b876f -0.1584 406.466473 -5.55141495E+003 3.62372 5.15440 12 (R3) n - 1
REM
REM Run started: Tue, 29 Sep 2020 00:43:28 +0100 in /lustre/scratch/uccabz1/launch_tmp/launcher_2020-09-28-14-31-50-631961
REM CASTEP 20.1 from code version af48c487+ pr-geom-scf-spinfix Tue Jun 2 15:39:59 2020 +0100
REM Functional Perdew Burke Ernzerhof Relativity Koelling-Harmon Dispersion off
REM Cut-off 340.0000 eV Grid scale 1.7500 Gmax 16.5316 1/A FBSC none
REM MP grid 4 4 4 Offset 0.000 0.000 0.000 No. kpts 12 Spacing 0.07
REM Total runtime: 52428.6 s
REM Overall efficiency: 96.9167 %
REM
REM
REM
REM compiler GCC version 4.9.2
REM options -cpp -iprefix /lustre/shared/ucl/apps/gcc/4.9.2/bin/../lib/gcc/x86_64-unknown-linux-gnu/4.9.2/ -mtune=corei7 -march=x86-64 -g -Og
REM COMMAND_LINE
REM seed 93972516 288276285 2063605873 1209150387 -1752566852 -382615577 -1710292206 1894513881 -1687498286 154556653 2063115713 1165861923
REM
REM S 3|1.8|5|6|7|30:31:32(qc=5)
REM O 2|1.5|12|13|15|20:21(qc=5)
REM Li 1|1.3|8|9|10|10U:20(qc=5)
REM Fe 3|2.2|2.0|1.0|8|9|10|40:41:32(qc=5)
REM 
CELL 1.54180   16.98193   16.98193   16.98193   17.95780   17.95780   17.95780
LATT -1
SFAC Li O  S  Fe 
Li     1 -0.0108140000000 -0.3278140000000  0.3312350000000 1.0   0.01
Li     1 -0.3278140000000  0.3312350000000 -0.0108140000000 1.0   0.01
Li     1  0.3312350000000 -0.0108140000000 -0.3278140000000 1.0   0.01
O      2  0.3426490000000 -0.3292720000000  0.0157900000000 1.0   0.14
O      2 -0.3292720000000  0.0157900000000  0.3426490000000 1.0   0.14
O      2  0.0157900000000  0.3426490000000 -0.3292720000000 1.0   0.14
O      2 -0.5981640000000 -0.5981640000000 -0.5981640000000 1.0   0.06
S      3  0.0667990000000  0.0667990000000  0.0667990000000 1.0  -0.20
S      3 -0.2668010000000 -0.2668010000000 -0.2668010000000 1.0  -0.20
Fe     4  0.1015440000000  0.3781530000000 -0.3452060000000 1.0   1.16
Fe     4  0.3781530000000 -0.3452060000000  0.1015440000000 1.0   1.16
Fe     4 -0.3452060000000  0.1015440000000  0.3781530000000 1.0   1.16
END
