TITL LFSO-Li4Fe2S3O-200911-003017-26870e 0.7689 671.879735 -7.74961077E+003 7.02124 8.11899 20 (R3) n - 1
REM
REM Run started: Sat, 12 Sep 2020 18:37:42 +0100 in /lustre/scratch/uccabz1/launch_tmp/launcher_2020-09-12-10-29-47-970819
REM CASTEP 20.1 from code version af48c487+ pr-geom-scf-spinfix Tue Jun 2 15:39:59 2020 +0100
REM Functional Perdew Burke Ernzerhof Relativity Koelling-Harmon Dispersion off
REM Cut-off 340.0000 eV Grid scale 1.7500 Gmax 16.5316 1/A FBSC none
REM MP grid 3 3 3 Offset 0.000 0.000 0.000 No. kpts 6 Spacing 0.07
REM Total runtime: 131740 s
REM Overall efficiency: 99 %
REM
REM
REM
REM compiler GCC version 4.9.2
REM options -cpp -iprefix /lustre/shared/ucl/apps/gcc/4.9.2/bin/../lib/gcc/x86_64-unknown-linux-gnu/4.9.2/ -mtune=corei7 -march=x86-64 -g -Og
REM COMMAND_LINE
REM seed 916595711 -1583683187 626350022 -263664676 -1467281955 -1378385 -897087849 223701295 -1888870572 -1636760065 -1199650276 694191944
REM
REM S 3|1.8|5|6|7|30:31:32(qc=5)
REM O 2|1.5|12|13|15|20:21(qc=5)
REM Li 1|1.3|8|9|10|10U:20(qc=5)
REM Fe 3|2.2|2.0|1.0|8|9|10|40:41:32(qc=5)
REM 
CELL 1.54180   19.49869   19.49869   19.49869   18.78751   18.78751   18.78751
LATT -1
SFAC Li O  S  Fe 
Li     1 -0.1331520000000 -0.2597540000000  0.3113110000000 1.0  -0.01
Li     1  0.3113110000000 -0.1331520000000 -0.2597540000000 1.0  -0.01
Li     1 -0.2597540000000  0.3113110000000 -0.1331520000000 1.0  -0.01
Li     1 -0.3397680000000 -0.0860760000000  0.4677480000000 1.0  -0.00
Li     1  0.4677480000000 -0.3397680000000 -0.0860760000000 1.0  -0.00
Li     1 -0.0860760000000  0.4677480000000 -0.3397680000000 1.0  -0.00
Li     1  0.4614220000000  0.4614220000000  0.4614220000000 1.0  -0.04
Li     1  0.1820680000000  0.1820680000000  0.1820680000000 1.0  -0.14
O      2 -0.3511500000000 -0.3511500000000 -0.3511500000000 1.0   0.01
O      2 -0.0243000000000 -0.0243000000000 -0.0243000000000 1.0   0.00
S      3 -0.5707440000000  0.2184570000000 -0.1751700000000 1.0   0.03
S      3 -0.1751700000000 -0.5707440000000  0.2184570000000 1.0   0.03
S      3  0.2184570000000 -0.1751700000000 -0.5707440000000 1.0   0.03
S      3  0.1005950000000 -0.3065620000000  0.2763480000000 1.0   0.00
S      3  0.2763480000000  0.1005950000000 -0.3065620000000 1.0   0.00
S      3 -0.3065620000000  0.2763480000000  0.1005950000000 1.0   0.00
Fe     4 -0.4135270000000 -0.1729290000000  0.0778160000000 1.0   2.37
Fe     4  0.0778160000000 -0.4135270000000 -0.1729290000000 1.0   2.37
Fe     4 -0.1729290000000  0.0778160000000 -0.4135270000000 1.0   2.37
Fe     4  0.0080150000000  0.0080150000000  0.0080150000000 1.0  -0.02
END
