TITL LFSO-Li5FeS3O-200910-092740-0b524e -0.6326 190.245956 -3210.259639826 3.49970 3.75273 10 (P-1) n - 1
REM
REM Run started: Fri, 11 Sep 2020 14:40:17 +0100 in /lustre/scratch/uccabz1/launch_tmp/launcher_2020-09-10-12-24-21-948640
REM CASTEP 20.1 from code version af48c487+ pr-geom-scf-spinfix Tue Jun 2 15:39:59 2020 +0100
REM Functional Perdew Burke Ernzerhof Relativity Koelling-Harmon Dispersion off
REM Cut-off 340.0000 eV Grid scale 1.7500 Gmax 16.5316 1/A FBSC none
REM MP grid 4 4 8 Offset 0.000 0.000 0.000 No. kpts 64 Spacing 0.07
REM Total runtime: 102801 s
REM Overall efficiency: 97.9091 %
REM
REM
REM
REM compiler GCC version 4.9.2
REM options -cpp -iprefix /lustre/shared/ucl/apps/gcc/4.9.2/bin/../lib/gcc/x86_64-unknown-linux-gnu/4.9.2/ -mtune=corei7 -march=x86-64 -g -Og
REM COMMAND_LINE
REM seed 1463562211 -189966205 218501093 1528255608 -1637855572 -1757389217 -1957192422 756821741 1554352222 -549149055 1239206964 1004415786
REM
REM S 3|1.8|5|6|7|30:31:32(qc=5)
REM O 2|1.5|12|13|15|20:21(qc=5)
REM Li 1|1.3|8|9|10|10U:20(qc=5)
REM Fe 3|2.2|2.0|1.0|8|9|10|40:41:32(qc=5)
REM 
CELL 1.54180   23.54424   25.84523    4.12593  153.06948   29.31769  170.32768
LATT -1
SFAC Li O  S  Fe 
Li     1 -0.6290560000000 -0.2511710000000  0.1472160000000 1.0   0.01
Li     1  0.6290560000000  0.2511710000000 -0.1472160000000 1.0   0.01
Li     1  0.0325670000000 -0.1421350000000 -0.0805990000000 1.0  -0.05
Li     1 -0.0325670000000  0.1421350000000  0.0805990000000 1.0  -0.05
Li     1  0.0000000000000  0.5000000000000  0.0000000000000 1.0  -0.01
O      2  0.0000000000000  0.5000000000000  0.5000000000000 1.0   0.00
S      3 -0.3233270000000 -0.5098370000000  0.1405700000000 1.0   0.10
S      3  0.3233270000000  0.5098370000000 -0.1405700000000 1.0   0.10
S      3  0.5000000000000  0.0000000000000 -0.5000000000000 1.0   0.02
Fe     4 -0.5000000000000 -0.5000000000000  0.0000000000000 1.0   3.35
END
