TITL LFSO-Li2FeSO-200912-060807-8c5f79 0.0074 73.599206 -2.00513034E+003 -3.45197 3.55948 5 (P-1) n - 1
REM
REM Run started: Sat, 12 Sep 2020 08:23:42 +0100 in /lustre/scratch/uccabz1/launch_tmp/launcher_2020-09-12-05-08-06-399855
REM CASTEP 20.1 from code version af48c487+ pr-geom-scf-spinfix Tue Jun 2 15:39:59 2020 +0100
REM Functional Perdew Burke Ernzerhof Relativity Koelling-Harmon Dispersion off
REM Cut-off 340.0000 eV Grid scale 1.7500 Gmax 16.5316 1/A FBSC none
REM MP grid 9 3 4 Offset 0.000 0.000 0.000 No. kpts 75 Spacing 0.07
REM Total runtime: 9095.88 s
REM Overall efficiency: 94.75 %
REM
REM
REM
REM compiler GCC version 4.9.2
REM options -cpp -iprefix /lustre/shared/ucl/apps/gcc/4.9.2/bin/../lib/gcc/x86_64-unknown-linux-gnu/4.9.2/ -mtune=corei7 -march=x86-64 -g -Og
REM COMMAND_LINE
REM seed -421394186 1048155373 1247886103 -1681495344 -1391280694 1052151359 -2003149119 -1278015824 1950065795 -1421589099 -322207591 -405829062
REM
REM S 3|1.8|5|6|7|30:31:32(qc=5)
REM O 2|1.5|12|13|15|20:21(qc=5)
REM Li 1|1.3|8|9|10|10U:20(qc=5)
REM Fe 3|2.2|2.0|1.0|8|9|10|40:41:32(qc=5)
REM 
CELL 1.54180    4.58526   10.91991    7.42676   37.27995   25.77026   27.09382
LATT -1
SFAC Li O  S  Fe 
Li     1  0.6123170000000 -0.3235690000000  0.3322500000000 1.0   0.07
Li     1 -0.6123170000000  0.3235690000000 -0.3322500000000 1.0   0.07
O      2  0.5000000000000  0.0000000000000  0.5000000000000 1.0  -0.23
S      3  0.0000000000000  0.5000000000000  0.0000000000000 1.0  -0.10
Fe     4  0.0000000000000  0.0000000000000  0.0000000000000 1.0  -3.26
END
