TITL LFSO-Li6FeS3O-200910-020531-f32af3 1.1838 179.426765 -3.41155565E+003 3.55689 3.69899 11 (P-1) n - 1
REM
REM Run started: Thu, 10 Sep 2020 10:03:42 +0100 in /lustre/scratch/uccabz1/launch_tmp/launcher_2020-09-10-07-44-10-192436
REM CASTEP 20.1 from code version af48c487+ pr-geom-scf-spinfix Tue Jun 2 15:39:59 2020 +0100
REM Functional Perdew Burke Ernzerhof Relativity Koelling-Harmon Dispersion off
REM Cut-off 340.0000 eV Grid scale 1.7500 Gmax 16.5316 1/A FBSC none
REM MP grid 4 6 4 Offset 0.000 0.000 0.000 No. kpts 48 Spacing 0.07
REM Total runtime: 26065.8 s
REM Overall efficiency: 97.4 %
REM
REM
REM
REM compiler GCC version 4.9.2
REM options -cpp -iprefix /lustre/shared/ucl/apps/gcc/4.9.2/bin/../lib/gcc/x86_64-unknown-linux-gnu/4.9.2/ -mtune=corei7 -march=x86-64 -g -Og
REM COMMAND_LINE
REM seed -767619734 -1543296866 250860415 -1132507689 1407125388 -761560547 -1827500997 685741572 1072610421 -1941895263 -550409445 1785803927
REM
REM S 3|1.8|5|6|7|30:31:32(qc=5)
REM O 2|1.5|12|13|15|20:21(qc=5)
REM Li 1|1.3|8|9|10|10U:20(qc=5)
REM Fe 3|2.2|2.0|1.0|8|9|10|40:41:32(qc=5)
REM 
CELL 1.54180    7.36657    9.11400   10.98998   28.57996   60.65054   39.72266
LATT -1
SFAC Li O  S  Fe 
Li     1  0.4830450000000 -0.6280700000000 -0.2499520000000 1.0  -0.01
Li     1 -0.4830450000000  0.6280700000000  0.2499520000000 1.0  -0.01
Li     1  0.0241640000000 -0.0730600000000  0.3362370000000 1.0  -0.02
Li     1 -0.0241640000000  0.0730600000000 -0.3362370000000 1.0  -0.02
Li     1 -0.3436510000000 -0.0561830000000 -0.2039980000000 1.0  -0.00
Li     1  0.3436510000000  0.0561830000000  0.2039980000000 1.0  -0.00
O      2  0.5000000000000 -0.5000000000000  0.5000000000000 1.0   0.01
S      3  0.0501320000000  0.3369250000000  0.2829260000000 1.0   0.06
S      3 -0.0501320000000 -0.3369250000000 -0.2829260000000 1.0   0.06
S      3  0.5000000000000 -0.5000000000000  0.0000000000000 1.0   0.09
Fe     4  0.5000000000000  0.0000000000000  0.5000000000000 1.0   3.40
END
