TITL LFSO-Li3FeS2O-200911-185928-2d9ee5 -0.1918 231.536762 -2.50762594E+003 2.87369 3.03602 7 (P-1) n - 1
REM
REM Run started: Sat, 12 Sep 2020 16:55:09 +0100 in /lustre/scratch/uccabz1/launch_tmp/launcher_2020-09-12-10-46-34-688748
REM CASTEP 20.1 from code version af48c487+ pr-geom-scf-spinfix Tue Jun 2 15:39:59 2020 +0100
REM Functional Perdew Burke Ernzerhof Relativity Koelling-Harmon Dispersion off
REM Cut-off 340.0000 eV Grid scale 1.7500 Gmax 16.5316 1/A FBSC none
REM MP grid 8 3 3 Offset 0.000 0.000 0.000 No. kpts 50 Spacing 0.07
REM Total runtime: 82196.8 s
REM Overall efficiency: 96.4167 %
REM
REM
REM
REM compiler GCC version 4.9.2
REM options -cpp -iprefix /lustre/shared/ucl/apps/gcc/4.9.2/bin/../lib/gcc/x86_64-unknown-linux-gnu/4.9.2/ -mtune=corei7 -march=x86-64 -g -Og
REM COMMAND_LINE
REM seed -814970579 827773915 1541421287 1789429723 -1697338221 1358687427 1564565153 719470412 -1394176889 -1250038462 326220263 687852672
REM
REM S 3|1.8|5|6|7|30:31:32(qc=5)
REM O 2|1.5|12|13|15|20:21(qc=5)
REM Li 1|1.3|8|9|10|10U:20(qc=5)
REM Fe 3|2.2|2.0|1.0|8|9|10|40:41:32(qc=5)
REM 
CELL 1.54180    3.11322   27.89535   30.53147   11.73281   25.52616   28.80761
LATT -1
SFAC Li O  S  Fe 
Li     1  0.1343970000000 -0.4094140000000 -0.1529380000000 1.0   0.00
Li     1 -0.1343970000000  0.4094140000000  0.1529380000000 1.0   0.00
Li     1  0.5000000000000  0.0000000000000  0.0000000000000 1.0  -0.02
O      2  0.0000000000000 -0.5000000000000  0.0000000000000 1.0  -0.00
S      3  0.9702540000000  0.2549730000000 -0.3363640000000 1.0   0.13
S      3 -0.9702540000000 -0.2549730000000  0.3363640000000 1.0   0.13
Fe     4  0.0000000000000 -0.5000000000000 -0.5000000000000 1.0   2.63
END
