TITL LFSO-Li6FeSO3-200909-214602-59e856 0.1346 308.534670 -3.67880156E+003 2.42106 3.83736 11 (Immm) n - 1
REM
REM Run started: Thu, 10 Sep 2020 05:38:34 +0100 in /lustre/scratch/uccabz1/launch_tmp/launcher_2020-09-09-20-45-59-941887
REM CASTEP 20.1 from code version af48c487+ pr-geom-scf-spinfix Tue Jun 2 15:39:59 2020 +0100
REM Functional Perdew Burke Ernzerhof Relativity Koelling-Harmon Dispersion off
REM Cut-off 340.0000 eV Grid scale 1.7500 Gmax 16.5316 1/A FBSC none
REM MP grid 2 5 5 Offset 0.000 0.000 0.000 No. kpts 15 Spacing 0.07
REM Total runtime: 51333.2 s
REM Overall efficiency: 96.6667 %
REM
REM
REM
REM compiler GCC version 4.9.2
REM options -cpp -iprefix /lustre/shared/ucl/apps/gcc/4.9.2/bin/../lib/gcc/x86_64-unknown-linux-gnu/4.9.2/ -mtune=corei7 -march=x86-64 -g -Og
REM COMMAND_LINE
REM seed 1390652954 2118454335 -1382304606 -795952977 -1518014518 -2001206124 1291610586 -562918471 -1069367552 -1720160549 -555201072 984599984
REM
REM S 3|1.8|5|6|7|30:31:32(qc=5)
REM O 2|1.5|12|13|15|20:21(qc=5)
REM Li 1|1.3|8|9|10|10U:20(qc=5)
REM Fe 3|2.2|2.0|1.0|8|9|10|40:41:32(qc=5)
REM 
CELL 1.54180   17.84433   10.23496   10.23496   20.89069   29.33943   29.33943
LATT -1
SFAC Li O  S  Fe 
Li     1  0.2736790000000  0.1522710000000  0.1522710000000 1.0  -0.14
Li     1  0.5782210000000 -0.1522710000000 -0.1522710000000 1.0  -0.14
Li     1 -0.5782210000000  0.1522710000000  0.1522710000000 1.0  -0.14
Li     1 -0.2736790000000 -0.1522710000000 -0.1522710000000 1.0  -0.14
Li     1 -0.1925010000000  0.1925010000000  0.1925010000000 1.0  -0.06
Li     1  0.1925010000000 -0.1925010000000 -0.1925010000000 1.0  -0.06
O      2  0.2055000000000  0.2945000000000  0.2945000000000 1.0   0.06
O      2 -0.2055000000000 -0.2945000000000 -0.2945000000000 1.0   0.06
O      2 -0.0000000000000  0.0000000000000  0.0000000000000 1.0   0.19
S      3  0.5000000000000  0.5000000000000  0.5000000000000 1.0   0.03
Fe     4 -0.0000000000000  0.5000000000000 -0.5000000000000 1.0   2.75
END
