TITL LFSO-Li6FeSO3-200909-211313-c81525 -0.0951 377.056055 -7.35765286E+003 6.02233 6.76502 22 (C2) n - 1
REM
REM Run started: Thu, 10 Sep 2020 12:15:40 +0100 in /lustre/scratch/uccabz1/launch_tmp/launcher_2020-09-10-09-53-30-481859
REM CASTEP 20.1 from code version af48c487+ pr-geom-scf-spinfix Tue Jun 2 15:39:59 2020 +0100
REM Functional Perdew Burke Ernzerhof Relativity Koelling-Harmon Dispersion off
REM Cut-off 340.0000 eV Grid scale 1.7500 Gmax 16.5316 1/A FBSC none
REM MP grid 3 3 3 Offset 0.000 0.000 0.000 No. kpts 10 Spacing 0.07
REM Total runtime: 54954.3 s
REM Overall efficiency: 67.2308 %
REM
REM
REM
REM compiler GCC version 4.9.2
REM options -cpp -iprefix /lustre/shared/ucl/apps/gcc/4.9.2/bin/../lib/gcc/x86_64-unknown-linux-gnu/4.9.2/ -mtune=corei7 -march=x86-64 -g -Og
REM COMMAND_LINE
REM seed -672630494 1692573255 -1477469935 1813311759 1035132165 1962878919 1373215589 -1925557532 1408980486 -406157009 -745610967 -1340436125
REM
REM S 3|1.8|5|6|7|30:31:32(qc=5)
REM O 2|1.5|12|13|15|20:21(qc=5)
REM Li 1|1.3|8|9|10|10U:20(qc=5)
REM Fe 3|2.2|2.0|1.0|8|9|10|40:41:32(qc=5)
REM 
CELL 1.54180    6.29490   12.34060   12.34060   23.19116   87.22405   87.22405
LATT -1
SFAC Li O  S  Fe 
Li     1 -0.7000660000000 -0.0066320000000 -0.1885790000000 1.0  -0.00
Li     1  0.7000660000000  0.1885790000000  0.0066320000000 1.0  -0.00
Li     1 -0.3728160000000 -0.2931960000000 -0.0090420000000 1.0  -0.14
Li     1  0.3728160000000  0.0090420000000  0.2931960000000 1.0  -0.14
Li     1  0.0233050000000  0.1690960000000  0.4403060000000 1.0   0.02
Li     1 -0.0233050000000 -0.4403060000000 -0.1690960000000 1.0   0.02
Li     1 -0.3264200000000 -0.1401160000000  0.1174450000000 1.0   0.00
Li     1  0.3264200000000 -0.1174450000000  0.1401160000000 1.0   0.00
Li     1  0.2840930000000 -0.5150600000000  0.3052060000000 1.0  -0.01
Li     1 -0.2840930000000 -0.3052060000000  0.5150600000000 1.0  -0.01
Li     1 -0.2667140000000  0.3998140000000  0.4180810000000 1.0  -0.07
Li     1  0.2667140000000 -0.4180810000000 -0.3998140000000 1.0  -0.07
O      2 -0.2152180000000  0.3673420000000  0.2866160000000 1.0   0.14
O      2  0.2152180000000 -0.2866160000000 -0.3673420000000 1.0   0.14
O      2 -0.4763180000000 -0.1242250000000  0.2637190000000 1.0   0.01
O      2  0.4763180000000 -0.2637190000000  0.1242250000000 1.0   0.01
O      2  0.2637880000000  0.1590120000000 -0.4766010000000 1.0   0.13
O      2 -0.2637880000000  0.4766010000000 -0.1590120000000 1.0   0.13
S      3 -0.0339780000000  0.1134310000000 -0.2030800000000 1.0  -0.00
S      3  0.0339780000000  0.2030800000000 -0.1134310000000 1.0  -0.00
Fe     4 -0.5374590000000 -0.4484660000000 -0.1878190000000 1.0   2.95
Fe     4  0.5374590000000  0.1878190000000  0.4484660000000 1.0   2.95
END
