TITL LFSO-Li4FeS2O-200910-112744-f73806 0.2418 980.851547 -5.41655061E+003 -7.99998 8.43913 16 (Cm) n - 1
REM
REM Run started: Sat, 12 Sep 2020 23:31:22 +0100 in /lustre/scratch/uccabz1/launch_tmp/launcher_2020-09-12-10-46-34-687103
REM CASTEP 20.1 from code version af48c487+ pr-geom-scf-spinfix Tue Jun 2 15:39:59 2020 +0100
REM Functional Perdew Burke Ernzerhof Relativity Koelling-Harmon Dispersion off
REM Cut-off 340.0000 eV Grid scale 1.7500 Gmax 16.5316 1/A FBSC none
REM MP grid 3 5 2 Offset 0.000 0.000 0.000 No. kpts 15 Spacing 0.07
REM Total runtime: 174344 s
REM Overall efficiency: 98.9091 %
REM
REM
REM
REM compiler GCC version 4.9.2
REM options -cpp -iprefix /lustre/shared/ucl/apps/gcc/4.9.2/bin/../lib/gcc/x86_64-unknown-linux-gnu/4.9.2/ -mtune=corei7 -march=x86-64 -g -Og
REM COMMAND_LINE
REM seed 1827107083 -2044451073 2104112408 -677907361 1877558590 -516824204 -887481528 1088782786 503139124 1692196853 -1671223034 915244327
REM
REM S 3|1.8|5|6|7|30:31:32(qc=5)
REM O 2|1.5|12|13|15|20:21(qc=5)
REM Li 1|1.3|8|9|10|10U:20(qc=5)
REM Fe 3|2.2|2.0|1.0|8|9|10|40:41:32(qc=5)
REM 
CELL 1.54180   32.34057   16.51033   18.76255   29.06003   30.47633   11.64872
LATT -1
SFAC Li O  S  Fe 
Li     1 -0.2958200000000  0.6883850000000  0.3402820000000 1.0  -0.01
Li     1 -0.7328470000000  0.6883850000000  0.3402820000000 1.0  -0.01
Li     1  0.3587000000000  0.6028090000000  0.1326800000000 1.0  -0.04
Li     1 -0.0941890000000  0.6028090000000  0.1326800000000 1.0  -0.04
Li     1  0.9973270000000 -1.0216170000000 -0.5029480000000 1.0   0.04
Li     1  0.5272380000000 -1.0216170000000 -0.5029480000000 1.0   0.04
Li     1 -0.4043100000000  0.4143590000000 -0.0266100000000 1.0   0.05
Li     1  0.0165610000000  0.4143590000000 -0.0266100000000 1.0   0.05
O      2  0.7086020000000 -0.4981780000000 -0.4604880000000 1.0  -0.31
O      2  0.2500640000000 -0.4981780000000 -0.4604880000000 1.0  -0.31
S      3  0.0300550000000  0.1477950000000  0.2315310000000 1.0  -0.02
S      3 -0.4093810000000  0.1477950000000  0.2315310000000 1.0  -0.02
S      3 -0.0730690000000 -0.1678470000000 -0.1312250000000 1.0  -0.22
S      3  0.3721420000000 -0.1678470000000 -0.1312250000000 1.0  -0.22
Fe     4  0.2101740000000 -0.6284270000000 -0.2633440000000 1.0  -3.51
Fe     4  0.6815970000000 -0.6284270000000 -0.2633440000000 1.0  -3.51
END
