TITL LFSO-Li2FeSO-200912-063620-c8cca4 0.0383 56.758523 -2.00536845E+003 -0.949301 1.06366 5 (R3m) n - 1
REM
REM Run started: Sat, 12 Sep 2020 07:16:04 +0100 in /lustre/scratch/uccabz1/launch_tmp/launcher_2020-09-12-05-36-18-471767
REM CASTEP 20.1 from code version af48c487+ pr-geom-scf-spinfix Tue Jun 2 15:39:59 2020 +0100
REM Functional Perdew Burke Ernzerhof Relativity Koelling-Harmon Dispersion off
REM Cut-off 340.0000 eV Grid scale 1.7500 Gmax 16.5316 1/A FBSC none
REM MP grid 6 6 6 Offset 0.000 0.000 0.000 No. kpts 28 Spacing 0.07
REM Total runtime: 2872.99 s
REM Overall efficiency: 83.4286 %
REM
REM
REM
REM compiler GCC version 4.9.2
REM options -cpp -iprefix /lustre/shared/ucl/apps/gcc/4.9.2/bin/../lib/gcc/x86_64-unknown-linux-gnu/4.9.2/ -mtune=corei7 -march=x86-64 -g -Og
REM COMMAND_LINE
REM seed -797499843 -1729264918 -394812248 1048418780 -307417161 -51975865 -964530336 254815029 -578770471 165263489 -298378843 318672416
REM
REM S 3|1.8|5|6|7|30:31:32(qc=5)
REM O 2|1.5|12|13|15|20:21(qc=5)
REM Li 1|1.3|8|9|10|10U:20(qc=5)
REM Fe 3|2.2|2.0|1.0|8|9|10|40:41:32(qc=5)
REM 
CELL 1.54180    6.57627    6.57627    6.57627   28.37352   28.37352   28.37352
LATT -1
SFAC Li O  S  Fe 
Li     1 -0.4656140000000 -0.4656140000000 -0.4656140000000 1.0  -0.02
Li     1 -0.0554940000000 -0.0554940000000 -0.0554940000000 1.0   0.01
O      2  0.2623460000000  0.2623460000000  0.2623460000000 1.0  -0.02
S      3 -0.2372760000000 -0.2372760000000 -0.2372760000000 1.0   0.02
Fe     4  0.3724910000000  0.3724910000000  0.3724910000000 1.0  -0.93
END
