TITL LFSO-Li4FeSO2-200910-075312-a43eec -0.7412 275.202539 -5679.992917472 3.07652 5.07728 16 (R3) n - 1
REM
REM Run started: Sat, 12 Sep 2020 10:54:50 +0100 in /lustre/scratch/uccabz1/launch_tmp/launcher_2020-09-12-06-54-51-292524
REM CASTEP 20.1 from code version af48c487+ pr-geom-scf-spinfix Tue Jun 2 15:39:59 2020 +0100
REM Functional Perdew Burke Ernzerhof Relativity Koelling-Harmon Dispersion off
REM Cut-off 340.0000 eV Grid scale 1.7500 Gmax 16.5316 1/A FBSC none
REM MP grid 3 3 3 Offset 0.000 0.000 0.000 No. kpts 6 Spacing 0.07
REM Total runtime: 61780.3 s
REM Overall efficiency: 97.8 %
REM
REM
REM
REM compiler GCC version 4.9.2
REM options -cpp -iprefix /lustre/shared/ucl/apps/gcc/4.9.2/bin/../lib/gcc/x86_64-unknown-linux-gnu/4.9.2/ -mtune=corei7 -march=x86-64 -g -Og
REM COMMAND_LINE
REM seed -376358257 -1844049528 1117704393 -1925945437 1435571140 1137198464 -707883143 -878529008 -1303325727 -505817318 -1083117806 1053429427
REM
REM S 3|1.8|5|6|7|30:31:32(qc=5)
REM O 2|1.5|12|13|15|20:21(qc=5)
REM Li 1|1.3|8|9|10|10U:20(qc=5)
REM Fe 3|2.2|2.0|1.0|8|9|10|40:41:32(qc=5)
REM 
CELL 1.54180   10.82443   10.82443   10.82443   29.67385   29.67385   29.67385
LATT -1
SFAC Li O  S  Fe 
Li     1 -0.3835240000000 -0.1639100000000  0.1824730000000 1.0  -0.00
Li     1  0.1824730000000 -0.3835240000000 -0.1639100000000 1.0  -0.00
Li     1 -0.1639100000000  0.1824730000000 -0.3835240000000 1.0  -0.00
Li     1 -0.0127410000000 -0.1784270000000  0.3955350000000 1.0  -0.04
Li     1  0.3955350000000 -0.0127410000000 -0.1784270000000 1.0  -0.04
Li     1 -0.1784270000000  0.3955350000000 -0.0127410000000 1.0  -0.04
Li     1 -0.4001990000000 -0.4001990000000 -0.4001990000000 1.0  -0.02
Li     1  0.1434700000000  0.1434700000000  0.1434700000000 1.0  -0.03
O      2  0.2831680000000 -0.0930960000000  0.5259150000000 1.0   0.17
O      2  0.5259150000000  0.2831680000000 -0.0930960000000 1.0   0.17
O      2 -0.0930960000000  0.5259150000000  0.2831680000000 1.0   0.17
O      2  0.0859490000000  0.0859490000000  0.0859490000000 1.0   0.04
S      3 -0.1816370000000 -0.1816370000000 -0.1816370000000 1.0   0.03
S      3  0.3804150000000  0.3804150000000  0.3804150000000 1.0   0.08
Fe     4  0.2493240000000  0.2493240000000  0.2493240000000 1.0   2.76
Fe     4 -0.5475420000000 -0.5475420000000 -0.5475420000000 1.0   3.40
END
