TITL LFSO-Li5FeSO3-200910-070038-b229af -0.0542 288.748649 -6.96233150E+003 7.47018 7.66801 20 (Cc) n - 1
REM
REM Run started: Fri, 11 Sep 2020 01:19:52 +0100 in /lustre/scratch/uccabz1/launch_tmp/launcher_2020-09-10-06-00-35-717898
REM CASTEP 20.1 from code version af48c487+ pr-geom-scf-spinfix Tue Jun 2 15:39:59 2020 +0100
REM Functional Perdew Burke Ernzerhof Relativity Koelling-Harmon Dispersion off
REM Cut-off 340.0000 eV Grid scale 1.7500 Gmax 16.5316 1/A FBSC none
REM MP grid 5 5 2 Offset 0.000 0.000 0.000 No. kpts 15 Spacing 0.07
REM Total runtime: 71963.2 s
REM Overall efficiency: 81.4545 %
REM
REM
REM
REM compiler GCC version 4.9.2
REM options -cpp -iprefix /lustre/shared/ucl/apps/gcc/4.9.2/bin/../lib/gcc/x86_64-unknown-linux-gnu/4.9.2/ -mtune=corei7 -march=x86-64 -g -Og
REM COMMAND_LINE
REM seed 562086921 -1672058546 852582848 557675843 1027807557 -1363168012 1546072077 -1446966659 -1108458157 -824577512 642242436 -1798398400
REM
REM S 3|1.8|5|6|7|30:31:32(qc=5)
REM O 2|1.5|12|13|15|20:21(qc=5)
REM Li 1|1.3|8|9|10|10U:20(qc=5)
REM Fe 3|2.2|2.0|1.0|8|9|10|40:41:32(qc=5)
REM 
CELL 1.54180    9.23736    9.23736   17.16309   36.41907   36.41907   19.99957
LATT -1
SFAC Li O  S  Fe 
Li     1 -0.2053190000000 -0.2703860000000  0.0150690000000 1.0   0.02
Li     1 -0.2703860000000 -0.2053190000000 -0.4849310000000 1.0   0.02
Li     1 -0.3219880000000 -0.3436410000000 -0.1719050000000 1.0   0.04
Li     1 -0.3436410000000 -0.3219880000000  0.3280950000000 1.0   0.04
Li     1  0.1510480000000  0.1198060000000  0.0170430000000 1.0  -0.00
Li     1  0.1198060000000  0.1510480000000 -0.4829570000000 1.0  -0.00
Li     1 -0.5111620000000 -0.4820160000000 -0.4308640000000 1.0   0.00
Li     1 -0.4820160000000 -0.5111620000000  0.0691360000000 1.0   0.00
Li     1  0.4991430000000 -0.4772000000000  0.2595140000000 1.0  -0.01
Li     1 -0.4772000000000  0.4991430000000 -0.2404860000000 1.0  -0.01
O      2  0.0518260000000  0.0798450000000  0.4571110000000 1.0   0.16
O      2  0.0798450000000  0.0518260000000 -0.0428890000000 1.0   0.16
O      2 -0.0424380000000 -0.0685600000000 -0.1293980000000 1.0   0.28
O      2 -0.0685600000000 -0.0424380000000  0.3706020000000 1.0   0.28
O      2 -0.3979920000000  0.6305650000000 -0.4233200000000 1.0   0.01
O      2  0.6305650000000 -0.3979920000000  0.0766800000000 1.0   0.01
S      3  0.3179210000000  0.2924350000000  0.1287070000000 1.0   0.12
S      3  0.2924350000000  0.3179210000000 -0.3712930000000 1.0   0.12
Fe     4 -0.0576600000000 -0.0320500000000  0.4654900000000 1.0   3.12
Fe     4 -0.0320500000000 -0.0576600000000 -0.0345100000000 1.0   3.12
END
