TITL LFSO-Li3Fe3S2O4-200928-182028-29acea 0.2741 297.381032 -1.11004666E+004 -7.90608 8.99323 24 (R3) n - 1
REM
REM Run started: Wed, 30 Sep 2020 19:44:27 +0100 in /lustre/scratch/uccabz1/launch_tmp/launcher_2020-09-30-17-29-26-297655
REM CASTEP 20.1 from code version af48c487+ pr-geom-scf-spinfix Tue Jun 2 15:39:59 2020 +0100
REM Functional Perdew Burke Ernzerhof Relativity Koelling-Harmon Dispersion off
REM Cut-off 340.0000 eV Grid scale 1.7500 Gmax 16.5316 1/A FBSC none
REM MP grid 4 4 4 Offset 0.000 0.000 0.000 No. kpts 12 Spacing 0.07
REM Total runtime: 129608 s
REM Overall efficiency: 99 %
REM
REM
REM
REM compiler GCC version 4.9.2
REM options -cpp -iprefix /scratch/UCL/applications/gcc/4.9.2/bin/../lib/gcc/x86_64-unknown-linux-gnu/4.9.2/ -mtune=corei7 -march=x86-64 -g -O2
REM COMMAND_LINE
REM seed 575634514 -1694266977 1654252649 -806214632 -119638900 -1115593280 1303668596 1852565030 357570844 -1316075565 -1981112038 1682501303
REM
REM S 3|1.8|5|6|7|30:31:32(qc=5)
REM O 2|1.5|12|13|15|20:21(qc=5)
REM Li 1|1.3|8|9|10|10U:20(qc=5)
REM Fe 3|2.2|2.0|1.0|8|9|10|40:41:32(qc=5)
REM 
CELL 1.54180   12.00800   12.00800   12.00800   26.20006   26.20006   26.20006
LATT -1
SFAC Li O  S  Fe 
Li     1  0.2017130000000 -0.3627860000000  0.0779220000000 1.0   0.00
Li     1  0.0779220000000  0.2017130000000 -0.3627860000000 1.0   0.00
Li     1 -0.3627860000000  0.0779220000000  0.2017130000000 1.0   0.00
Li     1  0.0000310000000 -0.4208330000000  0.1574180000000 1.0  -0.01
Li     1  0.1574180000000  0.0000310000000 -0.4208330000000 1.0  -0.01
Li     1 -0.4208330000000  0.1574180000000  0.0000310000000 1.0  -0.01
O      2  0.0311950000000  0.3610540000000 -0.3181240000000 1.0   0.04
O      2 -0.3181240000000  0.0311950000000  0.3610540000000 1.0   0.04
O      2  0.3610540000000 -0.3181240000000  0.0311950000000 1.0   0.04
O      2  0.4906160000000  0.0898190000000 -0.1097920000000 1.0  -0.06
O      2 -0.1097920000000  0.4906160000000  0.0898190000000 1.0  -0.06
O      2  0.0898190000000 -0.1097920000000  0.4906160000000 1.0  -0.06
O      2  0.2735240000000  0.2735240000000  0.2735240000000 1.0  -0.00
O      2 -0.0594250000000 -0.0594250000000 -0.0594250000000 1.0  -0.00
S      3  0.4024130000000 -0.2760780000000  0.0793360000000 1.0   0.05
S      3  0.0793360000000  0.4024130000000 -0.2760780000000 1.0   0.05
S      3 -0.2760780000000  0.0793360000000  0.4024130000000 1.0   0.05
S      3 -0.4514610000000 -0.4514610000000 -0.4514610000000 1.0  -0.22
Fe     4 -0.5094180000000 -0.2582740000000  0.2413890000000 1.0  -1.96
Fe     4  0.2413890000000 -0.5094180000000 -0.2582740000000 1.0  -1.96
Fe     4 -0.2582740000000  0.2413890000000 -0.5094180000000 1.0  -1.96
Fe     4 -0.5659100000000  0.0852810000000 -0.2162790000000 1.0  -0.62
Fe     4 -0.2162790000000 -0.5659100000000  0.0852810000000 1.0  -0.62
Fe     4  0.0852810000000 -0.2162790000000 -0.5659100000000 1.0  -0.62
END
