TITL LFSO-Li6FeS3O-200910-041845-82805a -0.1754 609.827034 -3.40778525E+003 0.908689E-02 0.596588 11 (R3) n - 1
REM
REM Run started: Thu, 10 Sep 2020 17:55:08 +0100 in /lustre/scratch/uccabz1/launch_tmp/launcher_2020-09-10-10-15-52-683108
REM CASTEP 20.1 from code version af48c487+ pr-geom-scf-spinfix Tue Jun 2 15:39:59 2020 +0100
REM Functional Perdew Burke Ernzerhof Relativity Koelling-Harmon Dispersion off
REM Cut-off 340.0000 eV Grid scale 1.7500 Gmax 16.5316 1/A FBSC none
REM MP grid 3 3 3 Offset 0.000 0.000 0.000 No. kpts 6 Spacing 0.07
REM Total runtime: 56493.3 s
REM Overall efficiency: 97.5455 %
REM
REM
REM
REM compiler GCC version 4.9.2
REM options -cpp -iprefix /lustre/shared/ucl/apps/gcc/4.9.2/bin/../lib/gcc/x86_64-unknown-linux-gnu/4.9.2/ -mtune=corei7 -march=x86-64 -g -Og
REM COMMAND_LINE
REM seed 828414782 -1058962390 651925062 2084844623 1705141796 858432381 -488668990 -1240351150 2146191911 -1776010226 316989475 1748502504
REM
REM S 3|1.8|5|6|7|30:31:32(qc=5)
REM O 2|1.5|12|13|15|20:21(qc=5)
REM Li 1|1.3|8|9|10|10U:20(qc=5)
REM Fe 3|2.2|2.0|1.0|8|9|10|40:41:32(qc=5)
REM 
CELL 1.54180   18.52220   18.52220   18.52220   19.34882   19.34882   19.34882
LATT -1
SFAC Li O  S  Fe 
Li     1 -0.2718790000000 -0.0868980000000  0.3354370000000 1.0   0.00
Li     1  0.3354370000000 -0.2718790000000 -0.0868980000000 1.0   0.00
Li     1 -0.0868980000000  0.3354370000000 -0.2718790000000 1.0   0.00
Li     1 -0.2934940000000  0.0544880000000 -0.6270760000000 1.0  -0.01
Li     1 -0.6270760000000 -0.2934940000000  0.0544880000000 1.0  -0.01
Li     1  0.0544880000000 -0.6270760000000 -0.2934940000000 1.0  -0.01
O      2  0.2958390000000  0.2958390000000  0.2958390000000 1.0   0.06
S      3 -0.3343830000000  0.3567880000000  0.0419510000000 1.0  -0.02
S      3  0.0419510000000 -0.3343830000000  0.3567880000000 1.0  -0.02
S      3  0.3567880000000  0.0419510000000 -0.3343830000000 1.0  -0.02
Fe     4  0.3259880000000  0.3259880000000  0.3259880000000 1.0   0.02
END
