TITL LFSO-Li2Fe3S3O-200912-170211-25f3bb -0.6952 356.927455 -8.68070372E+003 -19.8568 20.1996 18 (C2) n - 1
REM
REM Run started: Mon, 14 Sep 2020 01:48:05 +0100 in /lustre/scratch/uccabz1/launch_tmp/launcher_2020-09-13-23-16-09-225031
REM CASTEP 20.1 from code version af48c487+ pr-geom-scf-spinfix Tue Jun 2 15:39:59 2020 +0100
REM Functional Perdew Burke Ernzerhof Relativity Koelling-Harmon Dispersion off
REM Cut-off 340.0000 eV Grid scale 1.7500 Gmax 16.5316 1/A FBSC none
REM MP grid 3 3 3 Offset 0.000 0.000 0.000 No. kpts 10 Spacing 0.07
REM Total runtime: 117832 s
REM Overall efficiency: 65.2727 %
REM
REM
REM
REM compiler GCC version 4.9.2
REM options -cpp -iprefix /lustre/shared/ucl/apps/gcc/4.9.2/bin/../lib/gcc/x86_64-unknown-linux-gnu/4.9.2/ -mtune=corei7 -march=x86-64 -g -Og
REM COMMAND_LINE
REM seed -175542146 763760311 -213042605 -490361873 807260816 -1259754924 968277077 668415419 -335410681 631593796 -726320527 1665767650
REM
REM S 3|1.8|5|6|7|30:31:32(qc=5)
REM O 2|1.5|12|13|15|20:21(qc=5)
REM Li 1|1.3|8|9|10|10U:20(qc=5)
REM Fe 3|2.2|2.0|1.0|8|9|10|40:41:32(qc=5)
REM 
CELL 1.54180    7.54068   11.70856   11.70856   26.84902   51.16883   51.16883
LATT -1
SFAC Li O  S  Fe 
Li     1  0.2478060000000  0.3173730000000 -0.4175430000000 1.0   0.00
Li     1 -0.2478060000000  0.4175430000000 -0.3173730000000 1.0   0.00
Li     1  0.2783970000000 -0.1592930000000 -0.5457220000000 1.0  -0.03
Li     1 -0.2783970000000  0.5457220000000  0.1592930000000 1.0  -0.03
O      2  0.0583900000000 -0.1238920000000  0.3984530000000 1.0  -0.31
O      2 -0.0583900000000 -0.3984530000000  0.1238920000000 1.0  -0.31
S      3  0.0024750000000  0.2027820000000 -0.3800600000000 1.0  -0.23
S      3 -0.0024750000000  0.3800600000000 -0.2027820000000 1.0  -0.23
S      3 -0.5854270000000 -0.3754070000000 -0.1831510000000 1.0  -0.13
S      3  0.5854270000000  0.1831510000000  0.3754070000000 1.0  -0.13
S      3 -0.3224190000000 -0.0804390000000  0.2240920000000 1.0  -0.25
S      3  0.3224190000000 -0.2240920000000  0.0804390000000 1.0  -0.25
Fe     4  0.0325140000000 -0.0669610000000  0.1960370000000 1.0  -3.39
Fe     4 -0.0325140000000 -0.1960370000000  0.0669610000000 1.0  -3.39
Fe     4 -0.3442810000000  0.2272250000000  0.1130370000000 1.0  -3.16
Fe     4  0.3442810000000 -0.1130370000000 -0.2272250000000 1.0  -3.16
Fe     4  0.2262710000000 -0.5796720000000  0.2180980000000 1.0  -2.42
Fe     4 -0.2262710000000 -0.2180980000000  0.5796720000000 1.0  -2.42
END
