TITL LFSO-Li4Fe2S3O2-200911-050814-8611ae -0.0428 446.135354 -4.31423451E+003 6.02617 6.50160 11 (Fmm2) n - 1
REM
REM Run started: Fri, 11 Sep 2020 13:24:06 +0100 in /lustre/scratch/uccabz1/launch_tmp/launcher_2020-09-11-04-08-13-287688
REM CASTEP 20.1 from code version af48c487+ pr-geom-scf-spinfix Tue Jun 2 15:39:59 2020 +0100
REM Functional Perdew Burke Ernzerhof Relativity Koelling-Harmon Dispersion off
REM Cut-off 340.0000 eV Grid scale 1.7500 Gmax 16.5316 1/A FBSC none
REM MP grid 4 4 3 Offset 0.000 0.000 0.000 No. kpts 16 Spacing 0.07
REM Total runtime: 61455.8 s
REM Overall efficiency: 97.5833 %
REM
REM
REM
REM compiler GCC version 4.9.2
REM options -cpp -iprefix /lustre/shared/ucl/apps/gcc/4.9.2/bin/../lib/gcc/x86_64-unknown-linux-gnu/4.9.2/ -mtune=corei7 -march=x86-64 -g -Og
REM COMMAND_LINE
REM seed -13225805 1228489657 -253619165 -203815118 -1522219985 -1500752234 2114570648 -1784168186 -228135248 64102691 -1857392505 911138166
REM
REM S 3|1.8|5|6|7|30:31:32(qc=5)
REM O 2|1.5|12|13|15|20:21(qc=5)
REM Li 1|1.3|8|9|10|10U:20(qc=5)
REM Fe 3|2.2|2.0|1.0|8|9|10|40:41:32(qc=5)
REM 
CELL 1.54180   16.64642   16.64642   17.19050  160.59482  160.59482   18.55090
LATT -1
SFAC Li O  S  Fe 
Li     1 -0.3823830000000  0.5624590000000  0.2766960000000 1.0   0.01
Li     1 -0.5624590000000  0.3823830000000 -0.2766960000000 1.0   0.01
Li     1 -0.2857630000000 -0.3409210000000  0.2766960000000 1.0   0.01
Li     1  0.3409210000000  0.2857630000000 -0.2766960000000 1.0   0.01
O      2  0.4459560000000  0.1149390000000 -0.4391050000000 1.0   0.18
O      2 -0.1149390000000 -0.4459560000000  0.4391050000000 1.0   0.18
S      3 -0.0633300000000  0.1871740000000 -0.0000000000000 1.0   0.22
S      3 -0.1871740000000  0.0633300000000 -0.0000000000000 1.0   0.22
S      3  0.3054200000000 -0.3054200000000 -0.0000000000000 1.0  -0.08
Fe     4 -0.1565120000000 -0.0907940000000 -0.2473060000000 1.0   2.65
Fe     4  0.0907940000000  0.1565120000000  0.2473060000000 1.0   2.65
END
