TITL LFSO-Li6FeS2O2-200920-215506-874ad9 -0.8214 492.144148 -7.09291835E+003 8.00000 8.33551 22 (P-1) n - 1
REM
REM Run started: Mon, 21 Sep 2020 15:57:19 +0100 in /lustre/scratch/uccabz1/launch_tmp/launcher_2020-09-21-13-06-36-548927
REM CASTEP 20.1 from code version af48c487+ pr-geom-scf-spinfix Tue Jun 2 15:39:59 2020 +0100
REM Functional Perdew Burke Ernzerhof Relativity Koelling-Harmon Dispersion off
REM Cut-off 340.0000 eV Grid scale 1.7500 Gmax 16.5316 1/A FBSC none
REM MP grid 5 2 3 Offset 0.000 0.000 0.000 No. kpts 15 Spacing 0.07
REM Total runtime: 61640 s
REM Overall efficiency: 87.25 %
REM
REM
REM
REM compiler GCC version 4.9.2
REM options -cpp -iprefix /lustre/shared/ucl/apps/gcc/4.9.2/bin/../lib/gcc/x86_64-unknown-linux-gnu/4.9.2/ -mtune=corei7 -march=x86-64 -g -Og
REM COMMAND_LINE
REM seed -1577203030 1099597582 1604416034 1708771066 2130821388 1347854263 1998177381 -1765305724 -2027165191 1947368665 -1950452226 1555195362
REM
REM S 3|1.8|5|6|7|30:31:32(qc=5)
REM O 2|1.5|12|13|15|20:21(qc=5)
REM Li 1|1.3|8|9|10|10U:20(qc=5)
REM Fe 3|2.2|2.0|1.0|8|9|10|40:41:32(qc=5)
REM 
CELL 1.54180    8.10000   12.44857   14.27684  117.84827   29.60968  132.69717
LATT -1
SFAC Li O  S  Fe 
Li     1 -0.7208240000000  0.0741310000000  0.4497290000000 1.0  -0.01
Li     1  0.7208240000000 -0.0741310000000 -0.4497290000000 1.0  -0.01
Li     1  0.3678600000000 -0.4211590000000  0.1470160000000 1.0   0.00
Li     1 -0.3678600000000  0.4211590000000 -0.1470160000000 1.0   0.00
Li     1  0.2525870000000 -0.1415130000000 -0.0894240000000 1.0   0.02
Li     1 -0.2525870000000  0.1415130000000  0.0894240000000 1.0   0.02
Li     1  0.4430590000000  0.3062760000000  0.1001590000000 1.0  -0.02
Li     1 -0.4430590000000 -0.3062760000000 -0.1001590000000 1.0  -0.02
Li     1  0.3813180000000 -0.4708710000000 -0.3573180000000 1.0  -0.02
Li     1 -0.3813180000000  0.4708710000000  0.3573180000000 1.0  -0.02
Li     1  0.3378950000000 -0.3761000000000 -0.4981620000000 1.0  -0.05
Li     1 -0.3378950000000  0.3761000000000  0.4981620000000 1.0  -0.05
O      2 -0.2501050000000  0.0335460000000 -0.3113950000000 1.0   0.22
O      2  0.2501050000000 -0.0335460000000  0.3113950000000 1.0   0.22
O      2  0.0522500000000  0.3960860000000 -0.3656950000000 1.0   0.19
O      2 -0.0522500000000 -0.3960860000000  0.3656950000000 1.0   0.19
S      3 -0.0080950000000  0.3044310000000  0.2087390000000 1.0   0.01
S      3  0.0080950000000 -0.3044310000000 -0.2087390000000 1.0   0.01
S      3 -0.0229350000000 -0.3089300000000  0.1427440000000 1.0   0.14
S      3  0.0229350000000  0.3089300000000 -0.1427440000000 1.0   0.14
Fe     4 -0.1301500000000  0.2229020000000 -0.2719410000000 1.0   3.51
Fe     4  0.1301500000000 -0.2229020000000  0.2719410000000 1.0   3.51
END
