TITL LFSO-LiFe3S2O3-200909-202439-2395c1 0.0146 128.510466 -4.71188516E+003 3.47319 3.80462 9 (P-1) n - 1
REM
REM Run started: Thu, 10 Sep 2020 03:09:16 +0100 in /lustre/scratch/uccabz1/launch_tmp/launcher_2020-09-09-19-24-37-543142
REM CASTEP 20.1 from code version af48c487+ pr-geom-scf-spinfix Tue Jun 2 15:39:59 2020 +0100
REM Functional Perdew Burke Ernzerhof Relativity Koelling-Harmon Dispersion off
REM Cut-off 340.0000 eV Grid scale 1.7500 Gmax 16.5316 1/A FBSC none
REM MP grid 5 5 3 Offset 0.000 0.000 0.000 No. kpts 38 Spacing 0.07
REM Total runtime: 28295.9 s
REM Overall efficiency: 97.0909 %
REM
REM
REM
REM compiler GCC version 4.9.2
REM options -cpp -iprefix /lustre/shared/ucl/apps/gcc/4.9.2/bin/../lib/gcc/x86_64-unknown-linux-gnu/4.9.2/ -mtune=corei7 -march=x86-64 -g -Og
REM COMMAND_LINE
REM seed -269213972 858045649 -279407080 1326821413 1285232585 -1503584216 1489156891 -147325446 -123573226 -730913100 -2099260561 132368704
REM
REM S 3|1.8|5|6|7|30:31:32(qc=5)
REM O 2|1.5|12|13|15|20:21(qc=5)
REM Li 1|1.3|8|9|10|10U:20(qc=5)
REM Fe 3|2.2|2.0|1.0|8|9|10|40:41:32(qc=5)
REM 
CELL 1.54180    7.28859    3.43721   11.97149   93.90408   27.94934   82.69969
LATT -1
SFAC Li O  S  Fe 
Li     1  0.5000000000000  0.0000000000000 -0.5000000000000 1.0   0.00
O      2  0.1505550000000 -0.0255020000000 -0.4271720000000 1.0   0.04
O      2 -0.1505550000000  0.0255020000000  0.4271720000000 1.0   0.04
O      2 -1.0000000000000  0.5000000000000  0.5000000000000 1.0   0.04
S      3  0.3078700000000  0.3032500000000 -0.0105040000000 1.0  -0.04
S      3 -0.3078700000000 -0.3032500000000  0.0105040000000 1.0  -0.04
Fe     4 -0.2433580000000 -0.3648630000000 -0.2084020000000 1.0   1.24
Fe     4  0.2433580000000  0.3648630000000  0.2084020000000 1.0   1.24
Fe     4  0.0000000000000  0.0000000000000 -0.5000000000000 1.0   0.95
END
