TITL LFSO-Li3Fe3SO5-201001-211046-9c92c6 -0.0066 139.062258 -5.68308980E+003 8.35285 8.49017 12 (P-1) n - 1
REM
REM Run started: Fri, 02 Oct 2020 07:53:19 +0100 in /lustre/scratch/uccabz1/launch_tmp/launcher_2020-10-01-20-10-45-131670
REM CASTEP 20.1 from code version af48c487+ pr-geom-scf-spinfix Tue Jun 2 15:39:59 2020 +0100
REM Functional Perdew Burke Ernzerhof Relativity Koelling-Harmon Dispersion off
REM Cut-off 340.0000 eV Grid scale 1.7500 Gmax 16.5316 1/A FBSC none
REM MP grid 7 6 2 Offset 0.000 0.000 0.000 No. kpts 42 Spacing 0.07
REM Total runtime: 43167.3 s
REM Overall efficiency: 93 %
REM
REM
REM
REM compiler GCC version 4.9.2
REM options -cpp -iprefix /lustre/shared/ucl/apps/gcc/4.9.2/bin/../lib/gcc/x86_64-unknown-linux-gnu/4.9.2/ -mtune=corei7 -march=x86-64 -g -Og
REM COMMAND_LINE
REM seed 754206766 -599755165 -573143782 1972809918 865779026 1514559795 1222173203 676018802 151114198 -152433101 1076786935 528034696
REM
REM S 3|1.8|5|6|7|30:31:32(qc=5)
REM O 2|1.5|12|13|15|20:21(qc=5)
REM Li 1|1.3|8|9|10|10U:20(qc=5)
REM Fe 3|2.2|2.0|1.0|8|9|10|40:41:32(qc=5)
REM 
CELL 1.54180    5.62689    6.26058   11.54411  113.68301  125.29770   26.27065
LATT -1
SFAC Li O  S  Fe 
Li     1  0.7652030000000 -0.2094100000000 -0.3110770000000 1.0  -0.01
Li     1 -0.7652030000000  0.2094100000000  0.3110770000000 1.0  -0.01
Li     1 -0.5000000000000  0.5000000000000 -0.5000000000000 1.0  -0.01
O      2 -0.7022660000000  0.6741070000000 -0.1714420000000 1.0   0.11
O      2  0.7022660000000 -0.6741070000000  0.1714420000000 1.0   0.11
O      2  0.4320250000000 -0.1922120000000 -0.2936550000000 1.0   0.08
O      2 -0.4320250000000  0.1922120000000  0.2936550000000 1.0   0.08
O      2  0.5000000000000  0.0000000000000  0.0000000000000 1.0   0.45
S      3 -1.0000000000000  0.5000000000000  0.5000000000000 1.0   0.03
Fe     4  0.0237190000000 -0.2012700000000  0.1967030000000 1.0   2.10
Fe     4 -0.0237190000000  0.2012700000000 -0.1967030000000 1.0   2.10
Fe     4  0.5000000000000 -0.5000000000000  0.0000000000000 1.0   3.33
END
