TITL LFSO-Li2Fe4SO4-200911-231511-5ca253 -1.1821 312.919832 -1.18175116E+004 -25.9657 26.4708 22 (R3) n - 1
REM
REM Run started: Mon, 14 Sep 2020 01:07:59 +0100 in /lustre/scratch/uccabz1/launch_tmp/launcher_2020-09-13-22-12-22-205093
REM CASTEP 20.1 from code version af48c487+ pr-geom-scf-spinfix Tue Jun 2 15:39:59 2020 +0100
REM Functional Perdew Burke Ernzerhof Relativity Koelling-Harmon Dispersion off
REM Cut-off 340.0000 eV Grid scale 1.7500 Gmax 16.5316 1/A FBSC none
REM MP grid 3 3 3 Offset 0.000 0.000 0.000 No. kpts 6 Spacing 0.07
REM Total runtime: 180502 s
REM Overall efficiency: 98.9091 %
REM
REM
REM
REM compiler GCC version 4.9.2
REM options -cpp -iprefix /lustre/shared/ucl/apps/gcc/4.9.2/bin/../lib/gcc/x86_64-unknown-linux-gnu/4.9.2/ -mtune=corei7 -march=x86-64 -g -Og
REM COMMAND_LINE
REM seed 72874610 -379615732 -1722340344 1279189039 687087399 -1480561913 1116257030 -1682564126 -1561457458 924210063 2053424537 210346248
REM
REM S 3|1.8|5|6|7|30:31:32(qc=5)
REM O 2|1.5|12|13|15|20:21(qc=5)
REM Li 1|1.3|8|9|10|10U:20(qc=5)
REM Fe 3|2.2|2.0|1.0|8|9|10|40:41:32(qc=5)
REM 
CELL 1.54180   11.60523   11.60523   11.60523   28.42170   28.42170   28.42170
LATT -1
SFAC Li O  S  Fe 
Li     1  0.3751460000000 -0.2151910000000 -0.1009240000000 1.0   0.02
Li     1 -0.2151910000000 -0.1009240000000  0.3751460000000 1.0   0.02
Li     1 -0.1009240000000  0.3751460000000 -0.2151910000000 1.0   0.02
Li     1  0.3162420000000  0.3162420000000  0.3162420000000 1.0   0.01
O      2  0.0765310000000  0.5382400000000 -0.1877420000000 1.0  -0.24
O      2  0.5382400000000 -0.1877420000000  0.0765310000000 1.0  -0.24
O      2 -0.1877420000000  0.0765310000000  0.5382400000000 1.0  -0.24
O      2  0.2885610000000 -0.4083040000000 -0.0047240000000 1.0  -0.31
O      2 -0.4083040000000 -0.0047240000000  0.2885610000000 1.0  -0.31
O      2 -0.0047240000000  0.2885610000000 -0.4083040000000 1.0  -0.31
O      2 -0.2856790000000 -0.2856790000000 -0.2856790000000 1.0  -0.21
O      2  0.0205590000000  0.0205590000000  0.0205590000000 1.0  -0.29
S      3  0.1997290000000  0.1997290000000  0.1997290000000 1.0  -0.07
S      3 -0.4576580000000 -0.4576580000000 -0.4576580000000 1.0  -0.00
Fe     4  0.5307870000000  0.2690380000000 -0.0417160000000 1.0  -3.27
Fe     4  0.2690380000000 -0.0417160000000  0.5307870000000 1.0  -3.27
Fe     4 -0.0417160000000  0.5307870000000  0.2690380000000 1.0  -3.27
Fe     4  0.1211160000000 -0.1636890000000 -0.4322430000000 1.0  -2.20
Fe     4 -0.1636890000000 -0.4322430000000  0.1211160000000 1.0  -2.20
Fe     4 -0.4322430000000  0.1211160000000 -0.1636890000000 1.0  -2.20
Fe     4 -0.2288960000000 -0.2288960000000 -0.2288960000000 1.0  -3.91
Fe     4 -0.0376450000000 -0.0376450000000 -0.0376450000000 1.0  -3.47
END
