TITL LFSO-Li4Fe3SO4-200930-174551-252fd3 0.3335 480.219336 -1.08888989E+004 -1.10685 15.2596 24 (P1) n - 1
REM
REM Run started: Fri, 02 Oct 2020 05:23:40 +0100 in /scratch/scratch/mmm0366/launch_tmp/launcher_2020-10-02-02-34-02-864870
REM CASTEP 19.11| from code version Version unavailable
REM Functional Perdew Burke Ernzerhof Relativity Koelling-Harmon Dispersion off
REM Cut-off 340.0000 eV Grid scale 1.7500 Gmax 16.5316 1/A FBSC none
REM MP grid 3 3 3 Offset 0.000 0.000 0.000 No. kpts 6 Spacing 0.07
REM Total runtime: 118372 s
REM Overall efficiency: 98.3077 %
REM
REM
REM
REM compiler GCC version 4.9.2
REM options -cpp -iprefix /lustre/shared/ucl/apps/gcc/4.9.2/bin/../lib/gcc/x86_64-unknown-linux-gnu/4.9.2/ -mtune=corei7 -march=x86-64 -g -Og
REM COMMAND_LINE
REM seed -1466187596 718462065 -17096982 56193077 -1274308321 1058151629 2081606374 -349885742 492719334 -1428994217 -1026338453 752877009
REM
REM S 3|1.8|5|6|7|30:31:32(qc=5)
REM O 2|1.5|12|13|15|20:21(qc=5)
REM Li 1|1.3|8|9|10|10U:20(qc=5)
REM Fe 3|2.2|2.0|1.0|8|9|10|40:41:32(qc=5)
REM 
CELL 1.54180   14.88417   14.88417   14.88417   24.02339   24.02339   24.02339
LATT -1
SFAC Li O  S  Fe 
Li     1 -0.1338110000000  0.0670240000000 -0.4978880000000 1.0  -0.02
Li     1  0.0670240000000 -0.4978880000000 -0.1338110000000 1.0  -0.02
Li     1 -0.4978880000000 -0.1338110000000  0.0670240000000 1.0  -0.02
Li     1 -0.0015190000000  0.4367040000000 -0.5614790000000 1.0  -0.07
Li     1  0.4367040000000 -0.5614790000000 -0.0015190000000 1.0  -0.07
Li     1 -0.5614790000000 -0.0015190000000  0.4367040000000 1.0  -0.07
Li     1  0.3444380000000  0.3444380000000  0.3444380000000 1.0  -0.03
Li     1 -0.4999630000000 -0.4999630000000 -0.4999630000000 1.0   0.10
O      2 -0.4338130000000  0.1565480000000 -0.2459370000000 1.0  -0.13
O      2  0.1565480000000 -0.2459370000000 -0.4338130000000 1.0  -0.13
O      2 -0.2459370000000 -0.4338130000000  0.1565480000000 1.0  -0.13
O      2  0.1782760000000  0.1777470000000 -0.3952450000000 1.0   0.11
O      2  0.1777470000000 -0.3952450000000  0.1782760000000 1.0   0.11
O      2 -0.3952450000000  0.1782760000000  0.1777470000000 1.0   0.11
O      2  0.2238130000000  0.2238130000000  0.2238130000000 1.0  -0.07
O      2  0.1686760000000  0.1686760000000  0.1686760000000 1.0  -0.07
S      3 -0.3385920000000 -0.3385920000000 -0.3385920000000 1.0  -0.02
S      3 -0.1137190000000 -0.1137190000000 -0.1137190000000 1.0   0.11
Fe     4  0.2461260000000 -0.1311390000000 -0.1316660000000 1.0   2.14
Fe     4 -0.1311390000000 -0.1316660000000  0.2461260000000 1.0   2.14
Fe     4 -0.1316660000000  0.2461260000000 -0.1311390000000 1.0   2.14
Fe     4  0.1381010000000 -0.0248450000000  0.4686920000000 1.0  -2.40
Fe     4 -0.0248450000000  0.4686920000000  0.1381010000000 1.0  -2.40
Fe     4  0.4686920000000  0.1381010000000 -0.0248450000000 1.0  -2.40
END
