TITL LFSO-Li5FeS3O-200910-095255-9d3ba4 0.0295 1084.818099 -3.20924840E+003 3.08217 3.41480 10 (R3) n - 1
REM
REM Run started: Sat, 12 Sep 2020 11:27:01 +0100 in /lustre/scratch/uccabz1/launch_tmp/launcher_2020-09-12-05-57-52-409830
REM CASTEP 20.1 from code version af48c487+ pr-geom-scf-spinfix Tue Jun 2 15:39:59 2020 +0100
REM Functional Perdew Burke Ernzerhof Relativity Koelling-Harmon Dispersion off
REM Cut-off 340.0000 eV Grid scale 1.7500 Gmax 16.5316 1/A FBSC none
REM MP grid 3 3 3 Offset 0.000 0.000 0.000 No. kpts 6 Spacing 0.07
REM Total runtime: 85835.4 s
REM Overall efficiency: 97.375 %
REM
REM
REM
REM compiler GCC version 4.9.2
REM options -cpp -iprefix /lustre/shared/ucl/apps/gcc/4.9.2/bin/../lib/gcc/x86_64-unknown-linux-gnu/4.9.2/ -mtune=corei7 -march=x86-64 -g -Og
REM COMMAND_LINE
REM seed 1153677223 1609117315 367637223 533109300 -1547139109 -1500205798 -624319673 -1770207276 1985020865 70095322 2038704921 379779092
REM
REM S 3|1.8|5|6|7|30:31:32(qc=5)
REM O 2|1.5|12|13|15|20:21(qc=5)
REM Li 1|1.3|8|9|10|10U:20(qc=5)
REM Fe 3|2.2|2.0|1.0|8|9|10|40:41:32(qc=5)
REM 
CELL 1.54180   27.41337   27.41337   27.41337   14.23826   14.23826   14.23826
LATT -1
SFAC Li O  S  Fe 
Li     1  0.2267190000000 -0.1870530000000 -0.2710250000000 1.0   0.05
Li     1 -0.2710250000000  0.2267190000000 -0.1870530000000 1.0   0.05
Li     1 -0.1870530000000 -0.2710250000000  0.2267190000000 1.0   0.05
Li     1  0.2534600000000  0.2534600000000  0.2534600000000 1.0  -0.02
Li     1 -0.0558710000000 -0.0558710000000 -0.0558710000000 1.0  -0.04
O      2 -0.0767590000000 -0.0767590000000 -0.0767590000000 1.0   0.02
S      3 -0.0506030000000  0.3852210000000 -0.5108080000000 1.0   0.06
S      3 -0.5108080000000 -0.0506030000000  0.3852210000000 1.0   0.06
S      3  0.3852210000000 -0.5108080000000 -0.0506030000000 1.0   0.06
Fe     4  0.2855420000000  0.2855420000000  0.2855420000000 1.0   2.79
END
