TITL LFSO-Li5FeS3O-200910-104553-051d3a -0.0772 153.745274 -3.21305107E+003 2.56906 2.78838 10 (P-1) n - 1
REM
REM Run started: Thu, 10 Sep 2020 19:54:07 +0100 in /lustre/scratch/uccabz1/launch_tmp/launcher_2020-09-10-09-45-50-647497
REM CASTEP 20.1 from code version af48c487+ pr-geom-scf-spinfix Tue Jun 2 15:39:59 2020 +0100
REM Functional Perdew Burke Ernzerhof Relativity Koelling-Harmon Dispersion off
REM Cut-off 340.0000 eV Grid scale 1.7500 Gmax 16.5316 1/A FBSC none
REM MP grid 9 3 3 Offset 0.000 0.000 0.000 No. kpts 59 Spacing 0.07
REM Total runtime: 40782.6 s
REM Overall efficiency: 95.25 %
REM
REM
REM
REM compiler GCC version 4.9.2
REM options -cpp -iprefix /lustre/shared/ucl/apps/gcc/4.9.2/bin/../lib/gcc/x86_64-unknown-linux-gnu/4.9.2/ -mtune=corei7 -march=x86-64 -g -Og
REM COMMAND_LINE
REM seed 1955734457 -391495888 274312342 1701904625 622829085 1882324897 215679302 -831537268 937166389 73229805 1911137560 -1104741463
REM
REM S 3|1.8|5|6|7|30:31:32(qc=5)
REM O 2|1.5|12|13|15|20:21(qc=5)
REM Li 1|1.3|8|9|10|10U:20(qc=5)
REM Fe 3|2.2|2.0|1.0|8|9|10|40:41:32(qc=5)
REM 
CELL 1.54180    3.35927   22.43735    7.55368   62.87148   62.69861   17.73718
LATT -1
SFAC Li O  S  Fe 
Li     1 -0.0030200000000  0.1187290000000 -0.2510340000000 1.0  -0.01
Li     1  0.0030200000000 -0.1187290000000  0.2510340000000 1.0  -0.01
Li     1  0.1920460000000 -0.1325080000000 -0.3728990000000 1.0  -0.02
Li     1 -0.1920460000000  0.1325080000000  0.3728990000000 1.0  -0.02
Li     1 -0.5000000000000  0.5000000000000  0.0000000000000 1.0  -0.01
O      2  0.0000000000000  0.0000000000000 -0.5000000000000 1.0   0.04
S      3 -0.3591460000000  0.5132040000000  0.2736760000000 1.0   0.06
S      3  0.3591460000000 -0.5132040000000 -0.2736760000000 1.0   0.06
S      3  0.0000000000000  0.0000000000000  0.0000000000000 1.0   0.04
Fe     4  0.0000000000000  0.5000000000000  0.5000000000000 1.0   2.44
END
