TITL LFSO-Li5FeSO3-200910-042348-bd519a 0.4753 368.257884 -3477.799665038 1.00202 1.34645 10 (R3) n - 1
REM
REM Run started: Thu, 10 Sep 2020 09:37:45 +0100 in /lustre/scratch/uccabz1/launch_tmp/launcher_2020-09-10-03-23-46-335616
REM CASTEP 20.1 from code version af48c487+ pr-geom-scf-spinfix Tue Jun 2 15:39:59 2020 +0100
REM Functional Perdew Burke Ernzerhof Relativity Koelling-Harmon Dispersion off
REM Cut-off 340.0000 eV Grid scale 1.7500 Gmax 16.5316 1/A FBSC none
REM MP grid 4 4 4 Offset 0.000 0.000 0.000 No. kpts 12 Spacing 0.07
REM Total runtime: 18824 s
REM Overall efficiency: 95.75 %
REM
REM
REM
REM compiler GCC version 4.9.2
REM options -cpp -iprefix /lustre/shared/ucl/apps/gcc/4.9.2/bin/../lib/gcc/x86_64-unknown-linux-gnu/4.9.2/ -mtune=corei7 -march=x86-64 -g -Og
REM COMMAND_LINE
REM seed -202422450 -2074306871 876612423 -1738196512 -2097225030 -395166838 -135820246 -1518548996 212168515 -2119162315 809018956 -497599693
REM
REM S 3|1.8|5|6|7|30:31:32(qc=5)
REM O 2|1.5|12|13|15|20:21(qc=5)
REM Li 1|1.3|8|9|10|10U:20(qc=5)
REM Fe 3|2.2|2.0|1.0|8|9|10|40:41:32(qc=5)
REM 
CELL 1.54180   14.89855   14.89855   14.89855   20.89261   20.89261   20.89261
LATT -1
SFAC Li O  S  Fe 
Li     1  0.0427110000000  0.2471000000000 -0.3069690000000 1.0  -0.04
Li     1 -0.3069690000000  0.0427110000000  0.2471000000000 1.0  -0.04
Li     1  0.2471000000000 -0.3069690000000  0.0427110000000 1.0  -0.04
Li     1  0.2968010000000  0.2968010000000  0.2968010000000 1.0   0.05
Li     1 -0.3761470000000 -0.3761470000000 -0.3761470000000 1.0   0.07
O      2  0.3809540000000 -0.0453730000000  0.6137480000000 1.0   0.03
O      2  0.6137480000000  0.3809540000000 -0.0453730000000 1.0   0.03
O      2 -0.0453730000000  0.6137480000000  0.3809540000000 1.0   0.03
S      3 -0.2782310000000 -0.2782310000000 -0.2782310000000 1.0   0.09
Fe     4 -0.3228740000000 -0.3228740000000 -0.3228740000000 1.0   0.84
END
