TITL LFSO-Li5FeSO3-200910-050317-6b958d -0.3715 973.522841 -3.47935659E+003 -3.00000 3.48639 10 (Fmm2) n - 1
REM
REM Run started: Sat, 12 Sep 2020 07:46:43 +0100 in /lustre/scratch/uccabz1/launch_tmp/launcher_2020-09-11-21-22-16-654335
REM CASTEP 20.1 from code version af48c487+ pr-geom-scf-spinfix Tue Jun 2 15:39:59 2020 +0100
REM Functional Perdew Burke Ernzerhof Relativity Koelling-Harmon Dispersion off
REM Cut-off 340.0000 eV Grid scale 1.7500 Gmax 16.5316 1/A FBSC none
REM MP grid 3 3 4 Offset 0.000 0.000 0.000 No. kpts 12 Spacing 0.07
REM Total runtime: 171545 s
REM Overall efficiency: 97.5714 %
REM
REM
REM
REM compiler GCC version 4.9.2
REM options -cpp -iprefix /lustre/shared/ucl/apps/gcc/4.9.2/bin/../lib/gcc/x86_64-unknown-linux-gnu/4.9.2/ -mtune=corei7 -march=x86-64 -g -Og
REM COMMAND_LINE
REM seed 599202086 -1412087346 1171669392 -1271368439 -476091203 966401680 -275280566 1535197713 244514601 1370828965 1873124476 -2133498934
REM
REM S 3|1.8|5|6|7|30:31:32(qc=5)
REM O 2|1.5|12|13|15|20:21(qc=5)
REM Li 1|1.3|8|9|10|10U:20(qc=5)
REM Fe 3|2.2|2.0|1.0|8|9|10|40:41:32(qc=5)
REM 
CELL 1.54180   26.94171   26.94171   26.96489  167.11194  167.11194   17.95625
LATT -1
SFAC Li O  S  Fe 
Li     1  0.4827980000000  0.1561320000000  0.6825430000000 1.0   0.01
Li     1  0.1997450000000 -0.4735900000000 -0.3174570000000 1.0   0.01
Li     1 -0.4735900000000  0.1997450000000 -0.3174570000000 1.0   0.01
Li     1  0.1561320000000  0.4827980000000  0.6825430000000 1.0   0.01
Li     1 -0.2485270000000 -0.2485270000000 -0.4970540000000 1.0  -0.04
O      2  0.0299860000000 -0.2810890000000 -0.2511030000000 1.0  -0.18
O      2 -0.2810890000000  0.0299860000000 -0.2511030000000 1.0  -0.18
O      2  0.2120420000000  0.2120420000000  0.4240850000000 1.0  -0.14
S      3 -0.4894690000000 -0.4894690000000 -0.9789390000000 1.0   0.01
Fe     4  0.0107560000000  0.0107560000000  0.0215110000000 1.0  -2.53
END
