TITL LFSO-Li4FeSO2-200910-090722-0281d0 0.0435 290.432955 -5.68402371E+003 0.128869 7.24423 16 (R3) n - 1
REM
REM Run started: Fri, 11 Sep 2020 17:03:40 +0100 in /lustre/scratch/uccabz1/launch_tmp/launcher_2020-09-11-13-42-40-932459
REM CASTEP 20.1 from code version af48c487+ pr-geom-scf-spinfix Tue Jun 2 15:39:59 2020 +0100
REM Functional Perdew Burke Ernzerhof Relativity Koelling-Harmon Dispersion off
REM Cut-off 340.0000 eV Grid scale 1.7500 Gmax 16.5316 1/A FBSC none
REM MP grid 4 4 4 Offset 0.000 0.000 0.000 No. kpts 12 Spacing 0.07
REM Total runtime: 86519.9 s
REM Overall efficiency: 98.0909 %
REM
REM
REM
REM compiler GCC version 4.9.2
REM options -cpp -iprefix /lustre/shared/ucl/apps/gcc/4.9.2/bin/../lib/gcc/x86_64-unknown-linux-gnu/4.9.2/ -mtune=corei7 -march=x86-64 -g -Og
REM COMMAND_LINE
REM seed 326323284 696332007 -1374029658 -692424540 1322097902 620811319 1341272457 665440678 1277277827 717335684 -299296567 -2082535895
REM
REM S 3|1.8|5|6|7|30:31:32(qc=5)
REM O 2|1.5|12|13|15|20:21(qc=5)
REM Li 1|1.3|8|9|10|10U:20(qc=5)
REM Fe 3|2.2|2.0|1.0|8|9|10|40:41:32(qc=5)
REM 
CELL 1.54180   11.91948   11.91948   11.91948   26.18006   26.18006   26.18006
LATT -1
SFAC Li O  S  Fe 
Li     1  0.0889660000000  0.5552190000000 -0.3987540000000 1.0   0.01
Li     1 -0.3987540000000  0.0889660000000  0.5552190000000 1.0   0.01
Li     1  0.5552190000000 -0.3987540000000  0.0889660000000 1.0   0.01
Li     1  0.3226500000000 -0.0946710000000 -0.3130010000000 1.0   0.01
Li     1 -0.3130010000000  0.3226500000000 -0.0946710000000 1.0   0.01
Li     1 -0.0946710000000 -0.3130010000000  0.3226500000000 1.0   0.01
Li     1 -0.5082890000000 -0.5082890000000 -0.5082890000000 1.0  -0.02
Li     1  0.1748510000000  0.1748510000000  0.1748510000000 1.0   0.10
O      2  0.2211860000000 -0.3727220000000 -0.0158640000000 1.0  -0.09
O      2 -0.0158640000000  0.2211860000000 -0.3727220000000 1.0  -0.09
O      2 -0.3727220000000 -0.0158640000000  0.2211860000000 1.0  -0.09
O      2  0.4392800000000  0.4392800000000  0.4392800000000 1.0  -0.00
S      3 -0.3006920000000 -0.3006920000000 -0.3006920000000 1.0  -0.01
S      3 -0.1594740000000 -0.1594740000000 -0.1594740000000 1.0   0.06
Fe     4 -0.0900640000000 -0.0900640000000 -0.0900640000000 1.0   3.53
Fe     4  0.2630290000000  0.2630290000000  0.2630290000000 1.0  -3.30
END
