TITL LFSO-Li5FeSO3-200910-055238-c862ef 1.2406 113.541731 -3.48065873E+003 3.57311 3.72191 10 (P-1) n - 1
REM
REM Run started: Thu, 10 Sep 2020 11:50:40 +0100 in /lustre/scratch/uccabz1/launch_tmp/launcher_2020-09-10-09-30-50-439458
REM CASTEP 20.1 from code version af48c487+ pr-geom-scf-spinfix Tue Jun 2 15:39:59 2020 +0100
REM Functional Perdew Burke Ernzerhof Relativity Koelling-Harmon Dispersion off
REM Cut-off 340.0000 eV Grid scale 1.7500 Gmax 16.5316 1/A FBSC none
REM MP grid 5 7 5 Offset 0.000 0.000 0.000 No. kpts 88 Spacing 0.07
REM Total runtime: 23013.6 s
REM Overall efficiency: 97 %
REM
REM
REM
REM compiler GCC version 4.9.2
REM options -cpp -iprefix /lustre/shared/ucl/apps/gcc/4.9.2/bin/../lib/gcc/x86_64-unknown-linux-gnu/4.9.2/ -mtune=corei7 -march=x86-64 -g -Og
REM COMMAND_LINE
REM seed -1982872010 527612315 -14225548 -30342415 -986469765 -774918616 -2003834262 -356405832 -1484600819 358315449 1652140767 564604416
REM
REM S 3|1.8|5|6|7|30:31:32(qc=5)
REM O 2|1.5|12|13|15|20:21(qc=5)
REM Li 1|1.3|8|9|10|10U:20(qc=5)
REM Fe 3|2.2|2.0|1.0|8|9|10|40:41:32(qc=5)
REM 
CELL 1.54180    7.65205    8.42275   15.86826   13.88504   28.61630   34.66914
LATT -1
SFAC Li O  S  Fe 
Li     1 -0.2421450000000  0.0371270000000  0.1917130000000 1.0  -0.00
Li     1  0.2421450000000 -0.0371270000000 -0.1917130000000 1.0  -0.00
Li     1 -0.3494140000000  0.0425570000000  0.0337820000000 1.0  -0.02
Li     1  0.3494140000000 -0.0425570000000 -0.0337820000000 1.0  -0.02
Li     1  0.0000000000000  0.0000000000000  0.5000000000000 1.0  -0.00
O      2  0.3724140000000  0.0009310000000  0.4425450000000 1.0   0.18
O      2 -0.3724140000000 -0.0009310000000 -0.4425450000000 1.0   0.18
O      2  0.0000000000000  0.0000000000000  0.0000000000000 1.0   0.02
S      3  0.0000000000000  0.5000000000000 -0.5000000000000 1.0   0.12
Fe     4  0.5000000000000  0.0000000000000  0.5000000000000 1.0   3.13
END
