TITL LFSO-Li4Fe2S4O-200910-182617-3a3d5d -0.1999 231.296266 -4.18108896E+003 4.90898 5.20387 11 (P-1) n - 1
REM
REM Run started: Fri, 11 Sep 2020 06:53:35 +0100 in /lustre/scratch/uccabz1/launch_tmp/launcher_2020-09-10-17-26-15-389767
REM CASTEP 20.1 from code version af48c487+ pr-geom-scf-spinfix Tue Jun 2 15:39:59 2020 +0100
REM Functional Perdew Burke Ernzerhof Relativity Koelling-Harmon Dispersion off
REM Cut-off 340.0000 eV Grid scale 1.7500 Gmax 16.5316 1/A FBSC none
REM MP grid 8 3 3 Offset 0.000 0.000 0.000 No. kpts 36 Spacing 0.07
REM Total runtime: 53919.4 s
REM Overall efficiency: 98.0833 %
REM
REM
REM
REM compiler GCC version 4.9.2
REM options -cpp -iprefix /lustre/shared/ucl/apps/gcc/4.9.2/bin/../lib/gcc/x86_64-unknown-linux-gnu/4.9.2/ -mtune=corei7 -march=x86-64 -g -Og
REM COMMAND_LINE
REM seed 60440482 2139977437 1237437926 1037905305 -1627539484 831536387 643361107 1803251626 1546114856 -533619724 -2097051307 -2007809565
REM
REM S 3|1.8|5|6|7|30:31:32(qc=5)
REM O 2|1.5|12|13|15|20:21(qc=5)
REM Li 1|1.3|8|9|10|10U:20(qc=5)
REM Fe 3|2.2|2.0|1.0|8|9|10|40:41:32(qc=5)
REM 
CELL 1.54180    5.59115   16.13303    9.38871   51.46817   46.38454   22.20137
LATT -1
SFAC Li O  S  Fe 
Li     1 -0.1168300000000 -0.2315110000000 -0.3710820000000 1.0   0.02
Li     1  0.1168300000000  0.2315110000000  0.3710820000000 1.0   0.02
Li     1 -0.0762260000000 -0.1097390000000  0.2708070000000 1.0   0.04
Li     1  0.0762260000000  0.1097390000000 -0.2708070000000 1.0   0.04
O      2  0.5000000000000  0.0000000000000 -0.5000000000000 1.0   0.01
S      3 -0.4399120000000 -0.4380210000000  0.2435400000000 1.0   0.12
S      3  0.4399120000000  0.4380210000000 -0.2435400000000 1.0   0.12
S      3  0.1751640000000  0.2293520000000  0.0522200000000 1.0   0.14
S      3 -0.1751640000000 -0.2293520000000 -0.0522200000000 1.0   0.14
Fe     4  0.2889400000000 -0.5116620000000 -0.0028110000000 1.0   2.14
Fe     4 -0.2889400000000  0.5116620000000  0.0028110000000 1.0   2.14
END
