data_image0
_chemical_formula_structural       Li4O3S2Fe3
_chemical_formula_sum              "Li4 O3 S2 Fe3"
_cell_length_a       6.12996
_cell_length_b       6.12996
_cell_length_c       6.12996
_cell_angle_alpha    64.5077
_cell_angle_beta     64.5077
_cell_angle_gamma    64.5077

_space_group_name_H-M_alt    "P 1"
_space_group_IT_number       1

loop_
  _space_group_symop_operation_xyz
  'x, y, z'

loop_
  _atom_site_type_symbol
  _atom_site_label
  _atom_site_symmetry_multiplicity
  _atom_site_fract_x
  _atom_site_fract_y
  _atom_site_fract_z
  _atom_site_occupancy
  Li  Li1       1.0  0.38743  0.98476  0.38747  1.0000
  Li  Li2       1.0  0.38747  0.38743  0.98476  1.0000
  Li  Li3       1.0  0.98476  0.38747  0.38743  1.0000
  Li  Li4       1.0  0.11516  0.11516  0.11516  1.0000
  O   O1        1.0  0.02126  0.02118  0.48082  1.0000
  O   O2        1.0  0.48082  0.02126  0.02118  1.0000
  O   O3        1.0  0.02118  0.48082  0.02126  1.0000
  S   S1        1.0  0.38567  0.38567  0.38567  1.0000
  S   S2        1.0  0.65110  0.65110  0.65110  1.0000
  Fe  Fe1       1.0  0.65115  0.65134  0.07702  1.0000
  Fe  Fe2       1.0  0.07702  0.65115  0.65134  1.0000
  Fe  Fe3       1.0  0.65134  0.07702  0.65115  1.0000
