data_image0
_chemical_formula_structural       Li4O3S2Fe3
_chemical_formula_sum              "Li4 O3 S2 Fe3"
_cell_length_a       4.7211
_cell_length_b       5.48801
_cell_length_c       7.69781
_cell_angle_alpha    90
_cell_angle_beta     102.908
_cell_angle_gamma    90

_space_group_name_H-M_alt    "P 1"
_space_group_IT_number       1

loop_
  _space_group_symop_operation_xyz
  'x, y, z'

loop_
  _atom_site_type_symbol
  _atom_site_label
  _atom_site_symmetry_multiplicity
  _atom_site_fract_x
  _atom_site_fract_y
  _atom_site_fract_z
  _atom_site_occupancy
  Li  Li1       1.0  0.73994  0.10905  0.88590  1.0000
  Li  Li2       1.0  0.26006  0.10905  0.11410  1.0000
  Li  Li3       1.0  0.69829  0.92789  0.34507  1.0000
  Li  Li4       1.0  0.30171  0.92789  0.65493  1.0000
  O   O1        1.0  0.63432  0.78856  0.81060  1.0000
  O   O2        1.0  0.36568  0.78856  0.18940  1.0000
  O   O3        1.0  0.00000  0.76738  0.50000  1.0000
  S   S1        1.0  0.18963  0.28217  0.81382  1.0000
  S   S2        1.0  0.81037  0.28217  0.18618  1.0000
  Fe  Fe1       1.0  0.10127  0.61042  0.29865  1.0000
  Fe  Fe2       1.0  0.89873  0.61042  0.70135  1.0000
  Fe  Fe3       1.0  0.50000  0.60991  0.00000  1.0000
