data_image0
_chemical_formula_structural       Li4O3S2Fe3
_chemical_formula_sum              "Li4 O3 S2 Fe3"
_cell_length_a       3.79139
_cell_length_b       6.02842
_cell_length_c       9.35914
_cell_angle_alpha    89.9993
_cell_angle_beta     78.3139
_cell_angle_gamma    89.9965

_space_group_name_H-M_alt    "P 1"
_space_group_IT_number       1

loop_
  _space_group_symop_operation_xyz
  'x, y, z'

loop_
  _atom_site_type_symbol
  _atom_site_label
  _atom_site_symmetry_multiplicity
  _atom_site_fract_x
  _atom_site_fract_y
  _atom_site_fract_z
  _atom_site_occupancy
  Li  Li1       1.0  0.49263  0.07557  0.42135  1.0000
  Li  Li2       1.0  0.91398  0.07557  0.57865  1.0000
  Li  Li3       1.0  0.35249  0.38252  0.70198  1.0000
  Li  Li4       1.0  0.05447  0.38252  0.29802  1.0000
  O   O1        1.0  0.01918  0.09804  0.36830  1.0000
  O   O2        1.0  0.38747  0.09804  0.63170  1.0000
  O   O3        1.0  0.20359  0.87984  0.00000  1.0000
  S   S1        1.0  0.82849  0.61129  0.74974  1.0000
  S   S2        1.0  0.57824  0.61129  0.25026  1.0000
  Fe  Fe1       1.0  0.31317  0.87839  0.77992  1.0000
  Fe  Fe2       1.0  0.09309  0.87839  0.22008  1.0000
  Fe  Fe3       1.0  0.70291  0.72056  1.00000  1.0000
