data_image0
_chemical_formula_structural       Li2O2S3Fe4
_chemical_formula_sum              "Li2 O2 S3 Fe4"
_cell_length_a       3.93249
_cell_length_b       3.93249
_cell_length_c       10.5613
_cell_angle_alpha    100.609
_cell_angle_beta     100.609
_cell_angle_gamma    90.2517

_space_group_name_H-M_alt    "P 1"
_space_group_IT_number       1

loop_
  _space_group_symop_operation_xyz
  'x, y, z'

loop_
  _atom_site_type_symbol
  _atom_site_label
  _atom_site_symmetry_multiplicity
  _atom_site_fract_x
  _atom_site_fract_y
  _atom_site_fract_z
  _atom_site_occupancy
  Li  Li1       1.0  0.22455  0.10790  0.83521  1.0000
  Li  Li2       1.0  0.89210  0.77545  0.16479  1.0000
  O   O1        1.0  0.40595  0.79021  0.19643  1.0000
  O   O2        1.0  0.20979  0.59405  0.80357  1.0000
  S   S1        1.0  0.61999  0.01299  0.62907  1.0000
  S   S2        1.0  0.98701  0.38001  0.37093  1.0000
  S   S3        1.0  0.80783  0.19217  0.00000  1.0000
  Fe  Fe1       1.0  0.53633  0.87411  0.39319  1.0000
  Fe  Fe2       1.0  0.12589  0.46367  0.60681  1.0000
  Fe  Fe3       1.0  0.73042  0.61546  0.84428  1.0000
  Fe  Fe4       1.0  0.38454  0.26958  0.15572  1.0000
