data_image0
_chemical_formula_structural       Li2O2S3Fe4
_chemical_formula_sum              "Li2 O2 S3 Fe4"
_cell_length_a       3.80856
_cell_length_b       4.0015
_cell_length_c       10.6525
_cell_angle_alpha    100.811
_cell_angle_beta     100.292
_cell_angle_gamma    90.0101

_space_group_name_H-M_alt    "P 1"
_space_group_IT_number       1

loop_
  _space_group_symop_operation_xyz
  'x, y, z'

loop_
  _atom_site_type_symbol
  _atom_site_label
  _atom_site_symmetry_multiplicity
  _atom_site_fract_x
  _atom_site_fract_y
  _atom_site_fract_z
  _atom_site_occupancy
  Li  Li1       1.0  0.07058  0.57279  0.64495  1.0000
  Li  Li2       1.0  0.92942  0.42721  0.35505  1.0000
  O   O1        1.0  0.40230  0.40054  0.30171  1.0000
  O   O2        1.0  0.59770  0.59946  0.69829  1.0000
  S   S1        1.0  0.81434  0.81375  0.12819  1.0000
  S   S2        1.0  0.18566  0.18625  0.87181  1.0000
  S   S3        1.0  0.00000  0.00000  0.50000  1.0000
  Fe  Fe1       1.0  0.58331  0.08515  0.66955  1.0000
  Fe  Fe2       1.0  0.41669  0.91485  0.33045  1.0000
  Fe  Fe3       1.0  0.31144  0.30240  0.10650  1.0000
  Fe  Fe4       1.0  0.68856  0.69760  0.89350  1.0000
