data_image0
_chemical_formula_structural       Li4O4S2Fe4
_chemical_formula_sum              "Li4 O4 S2 Fe4"
_cell_length_a       5.54206
_cell_length_b       5.72968
_cell_length_c       6.254
_cell_angle_alpha    111.848
_cell_angle_beta     90
_cell_angle_gamma    90

_space_group_name_H-M_alt    "P 1"
_space_group_IT_number       1

loop_
  _space_group_symop_operation_xyz
  'x, y, z'

loop_
  _atom_site_type_symbol
  _atom_site_label
  _atom_site_symmetry_multiplicity
  _atom_site_fract_x
  _atom_site_fract_y
  _atom_site_fract_z
  _atom_site_occupancy
  Li  Li1       1.0  0.06271  0.08391  0.03022  1.0000
  Li  Li2       1.0  0.93729  0.58391  0.03022  1.0000
  Li  Li3       1.0  0.46977  0.55938  0.18428  1.0000
  Li  Li4       1.0  0.53023  0.05938  0.18428  1.0000
  O   O1        1.0  0.75083  0.28157  0.10537  1.0000
  O   O2        1.0  0.24917  0.78157  0.10537  1.0000
  O   O3        1.0  0.71530  0.52667  0.77520  1.0000
  O   O4        1.0  0.28470  0.02667  0.77520  1.0000
  S   S1        1.0  0.75187  0.88424  0.42343  1.0000
  S   S2        1.0  0.24813  0.38424  0.42343  1.0000
  Fe  Fe1       1.0  0.38884  0.68734  0.78733  1.0000
  Fe  Fe2       1.0  0.61116  0.18734  0.78733  1.0000
  Fe  Fe3       1.0  0.18651  0.95562  0.45058  1.0000
  Fe  Fe4       1.0  0.81349  0.45562  0.45058  1.0000
