data_image0
_chemical_formula_structural       Li2O2SFe2
_chemical_formula_sum              "Li2 O2 S1 Fe2"
_cell_length_a       3.46661
_cell_length_b       5.5857
_cell_length_c       5.5857
_cell_angle_alpha    113.342
_cell_angle_beta     90
_cell_angle_gamma    90

_space_group_name_H-M_alt    "P 1"
_space_group_IT_number       1

loop_
  _space_group_symop_operation_xyz
  'x, y, z'

loop_
  _atom_site_type_symbol
  _atom_site_label
  _atom_site_symmetry_multiplicity
  _atom_site_fract_x
  _atom_site_fract_y
  _atom_site_fract_z
  _atom_site_occupancy
  Li  Li1       1.0  0.25458  0.79035  0.79035  1.0000
  Li  Li2       1.0  0.25458  0.20965  0.20965  1.0000
  O   O1        1.0  0.25340  0.84315  0.15685  1.0000
  O   O2        1.0  0.25340  0.15685  0.84315  1.0000
  S   S1        1.0  0.75701  0.50000  0.50000  1.0000
  Fe  Fe1       1.0  0.75313  0.75316  0.24684  1.0000
  Fe  Fe2       1.0  0.75313  0.24684  0.75316  1.0000
