data_image0
_chemical_formula_structural       Li2O2SFe2
_chemical_formula_sum              "Li2 O2 S1 Fe2"
_cell_length_a       3.46622
_cell_length_b       5.58084
_cell_length_c       5.58358
_cell_angle_alpha    113.404
_cell_angle_beta     90
_cell_angle_gamma    90

_space_group_name_H-M_alt    "P 1"
_space_group_IT_number       1

loop_
  _space_group_symop_operation_xyz
  'x, y, z'

loop_
  _atom_site_type_symbol
  _atom_site_label
  _atom_site_symmetry_multiplicity
  _atom_site_fract_x
  _atom_site_fract_y
  _atom_site_fract_z
  _atom_site_occupancy
  Li  Li1       1.0  0.42881  0.28876  0.29072  1.0000
  Li  Li2       1.0  0.42881  0.71124  0.70928  1.0000
  O   O1        1.0  0.42940  0.65597  0.34255  1.0000
  O   O2        1.0  0.42940  0.34403  0.65745  1.0000
  S   S1        1.0  0.92956  0.00000  0.00000  1.0000
  Fe  Fe1       1.0  0.92917  0.74491  0.25200  1.0000
  Fe  Fe2       1.0  0.92917  0.25509  0.74800  1.0000
