data_image0
_chemical_formula_structural       Li4O2S8Fe8
_chemical_formula_sum              "Li4 O2 S8 Fe8"
_cell_length_a       3.79848
_cell_length_b       5.77574
_cell_length_c       18.1849
_cell_angle_alpha    90
_cell_angle_beta     90
_cell_angle_gamma    91.1943

_space_group_name_H-M_alt    "P 1"
_space_group_IT_number       1

loop_
  _space_group_symop_operation_xyz
  'x, y, z'

loop_
  _atom_site_type_symbol
  _atom_site_label
  _atom_site_symmetry_multiplicity
  _atom_site_fract_x
  _atom_site_fract_y
  _atom_site_fract_z
  _atom_site_occupancy
  Li  Li1       1.0  0.81667  0.29286  0.95797  1.0000
  Li  Li2       1.0  0.68333  0.20714  0.45797  1.0000
  Li  Li3       1.0  0.18333  0.70714  0.04203  1.0000
  Li  Li4       1.0  0.31667  0.79286  0.54203  1.0000
  O   O1        1.0  0.00000  0.00000  0.00000  1.0000
  O   O2        1.0  0.50000  0.50000  0.50000  1.0000
  S   S1        1.0  0.17072  0.94624  0.40956  1.0000
  S   S2        1.0  0.32928  0.55376  0.90956  1.0000
  S   S3        1.0  0.82928  0.05376  0.59044  1.0000
  S   S4        1.0  0.67072  0.44624  0.09044  1.0000
  S   S5        1.0  0.81310  0.06790  0.80717  1.0000
  S   S6        1.0  0.68690  0.43210  0.30717  1.0000
  S   S7        1.0  0.18690  0.93210  0.19283  1.0000
  S   S8        1.0  0.31310  0.56790  0.69283  1.0000
  Fe  Fe1       1.0  0.67376  0.67766  0.41616  1.0000
  Fe  Fe2       1.0  0.82624  0.82234  0.91616  1.0000
  Fe  Fe3       1.0  0.32624  0.32234  0.58384  1.0000
  Fe  Fe4       1.0  0.17376  0.17766  0.08384  1.0000
  Fe  Fe5       1.0  0.82056  0.82409  0.69968  1.0000
  Fe  Fe6       1.0  0.67944  0.67591  0.19968  1.0000
  Fe  Fe7       1.0  0.17944  0.17591  0.30032  1.0000
  Fe  Fe8       1.0  0.32056  0.32409  0.80032  1.0000
