data_image0
_chemical_formula_structural       Li2OS4Fe4
_chemical_formula_sum              "Li2 O1 S4 Fe4"
_cell_length_a       5.81124
_cell_length_b       6.35127
_cell_length_c       6.87705
_cell_angle_alpha    69.7039
_cell_angle_beta     65.0069
_cell_angle_gamma    62.7749

_space_group_name_H-M_alt    "P 1"
_space_group_IT_number       1

loop_
  _space_group_symop_operation_xyz
  'x, y, z'

loop_
  _atom_site_type_symbol
  _atom_site_label
  _atom_site_symmetry_multiplicity
  _atom_site_fract_x
  _atom_site_fract_y
  _atom_site_fract_z
  _atom_site_occupancy
  Li  Li1       1.0  0.04489  0.32674  0.71753  1.0000
  Li  Li2       1.0  0.08917  0.67326  0.28247  1.0000
  O   O1        1.0  0.86936  0.50000  0.50000  1.0000
  S   S1        1.0  0.71776  0.32809  0.08733  1.0000
  S   S2        1.0  0.13318  0.67191  0.91267  1.0000
  S   S3        1.0  0.30973  0.92149  0.30393  1.0000
  S   S4        1.0  0.53515  0.07851  0.69607  1.0000
  Fe  Fe1       1.0  0.66697  0.73865  0.99026  1.0000
  Fe  Fe2       1.0  0.39589  0.26135  0.00974  1.0000
  Fe  Fe3       1.0  0.51034  0.74512  0.60528  1.0000
  Fe  Fe4       1.0  0.86074  0.25488  0.39472  1.0000
