data_image0
_chemical_formula_structural       Li2OS4Fe4
_chemical_formula_sum              "Li2 O1 S4 Fe4"
_cell_length_a       3.86174
_cell_length_b       6.28268
_cell_length_c       8.89954
_cell_angle_alpha    73.6551
_cell_angle_beta     77.9678
_cell_angle_gamma    85.9799

_space_group_name_H-M_alt    "P 1"
_space_group_IT_number       1

loop_
  _space_group_symop_operation_xyz
  'x, y, z'

loop_
  _atom_site_type_symbol
  _atom_site_label
  _atom_site_symmetry_multiplicity
  _atom_site_fract_x
  _atom_site_fract_y
  _atom_site_fract_z
  _atom_site_occupancy
  Li  Li1       1.0  0.78700  0.29049  0.51209  1.0000
  Li  Li2       1.0  0.21300  0.70951  0.48791  1.0000
  O   O1        1.0  0.00000  0.00000  0.50000  1.0000
  S   S1        1.0  0.82959  0.65017  0.30284  1.0000
  S   S2        1.0  0.17041  0.34983  0.69716  1.0000
  S   S3        1.0  0.51630  0.77764  0.86685  1.0000
  S   S4        1.0  0.48370  0.22236  0.13315  1.0000
  Fe  Fe1       1.0  0.40645  0.60407  0.15052  1.0000
  Fe  Fe2       1.0  0.59355  0.39593  0.84948  1.0000
  Fe  Fe3       1.0  0.07083  0.95268  0.71730  1.0000
  Fe  Fe4       1.0  0.92917  0.04732  0.28270  1.0000
