data_image0
_chemical_formula_structural       Li2OS2Fe2
_chemical_formula_sum              "Li2 O1 S2 Fe2"
_cell_length_a       3.85807
_cell_length_b       3.85807
_cell_length_c       6.94382
_cell_angle_alpha    106.033
_cell_angle_beta     106.033
_cell_angle_gamma    90.0201

_space_group_name_H-M_alt    "P 1"
_space_group_IT_number       1

loop_
  _space_group_symop_operation_xyz
  'x, y, z'

loop_
  _atom_site_type_symbol
  _atom_site_label
  _atom_site_symmetry_multiplicity
  _atom_site_fract_x
  _atom_site_fract_y
  _atom_site_fract_z
  _atom_site_occupancy
  Li  Li1       1.0  0.44841  0.05565  0.00038  1.0000
  Li  Li2       1.0  0.94435  0.55159  0.99962  1.0000
  O   O1        1.0  0.94730  0.05270  0.00000  1.0000
  S   S1        1.0  0.59547  0.70317  0.29978  1.0000
  S   S2        1.0  0.29683  0.40453  0.70022  1.0000
  Fe  Fe1       1.0  0.10892  0.20399  0.31963  1.0000
  Fe  Fe2       1.0  0.79601  0.89108  0.68037  1.0000
