data_image0
_chemical_formula_structural       Li4O2S4Fe4
_chemical_formula_sum              "Li4 O2 S4 Fe4"
_cell_length_a       6.47514
_cell_length_b       6.47514
_cell_length_c       7.06412
_cell_angle_alpha    105.033
_cell_angle_beta     105.037
_cell_angle_gamma    115.722

_space_group_name_H-M_alt    "P 1"
_space_group_IT_number       1

loop_
  _space_group_symop_operation_xyz
  'x, y, z'

loop_
  _atom_site_type_symbol
  _atom_site_label
  _atom_site_symmetry_multiplicity
  _atom_site_fract_x
  _atom_site_fract_y
  _atom_site_fract_z
  _atom_site_occupancy
  Li  Li1       1.0  0.26540  0.49831  0.09344  1.0000
  Li  Li2       1.0  0.82801  0.59513  0.09345  1.0000
  Li  Li3       1.0  0.34513  0.07804  0.59344  1.0000
  Li  Li4       1.0  0.24832  0.51543  0.59345  1.0000
  O   O1        1.0  0.35998  0.85999  0.71995  1.0000
  O   O2        1.0  0.60996  0.60996  0.21995  1.0000
  S   S1        1.0  0.04169  0.16521  0.72242  1.0000
  S   S2        1.0  0.68073  0.55722  0.72242  1.0000
  S   S3        1.0  0.30721  0.93073  0.22242  1.0000
  S   S4        1.0  0.91520  0.29170  0.22242  1.0000
  Fe  Fe1       1.0  0.71405  0.98363  0.84921  1.0000
  Fe  Fe2       1.0  0.13517  0.86554  0.84919  1.0000
  Fe  Fe3       1.0  0.61557  0.38516  0.34921  1.0000
  Fe  Fe4       1.0  0.73365  0.96402  0.34919  1.0000
