data_image0
_chemical_formula_structural       Li8O6S2Fe4
_chemical_formula_sum              "Li8 O6 S2 Fe4"
_cell_length_a       6.35661
_cell_length_b       7.19821
_cell_length_c       7.19821
_cell_angle_alpha    102.768
_cell_angle_beta     105.099
_cell_angle_gamma    105.099

_space_group_name_H-M_alt    "P 1"
_space_group_IT_number       1

loop_
  _space_group_symop_operation_xyz
  'x, y, z'

loop_
  _atom_site_type_symbol
  _atom_site_label
  _atom_site_symmetry_multiplicity
  _atom_site_fract_x
  _atom_site_fract_y
  _atom_site_fract_z
  _atom_site_occupancy
  Li  Li1       1.0  0.84475  0.45269  0.02928  1.0000
  Li  Li2       1.0  0.34475  0.52928  0.95269  1.0000
  Li  Li3       1.0  0.08199  0.87712  0.54223  1.0000
  Li  Li4       1.0  0.58199  0.04223  0.37712  1.0000
  Li  Li5       1.0  0.98031  0.15211  0.81426  1.0000
  Li  Li6       1.0  0.48031  0.31426  0.65211  1.0000
  Li  Li7       1.0  0.72712  0.74779  0.16674  1.0000
  Li  Li8       1.0  0.22712  0.66674  0.24779  1.0000
  O   O1        1.0  0.44662  0.81032  0.14965  1.0000
  O   O2        1.0  0.94662  0.64965  0.31032  1.0000
  O   O3        1.0  0.53154  0.29633  0.39852  1.0000
  O   O4        1.0  0.03154  0.89852  0.79633  1.0000
  O   O5        1.0  0.61922  0.54262  0.88376  1.0000
  O   O6        1.0  0.11922  0.38376  0.04262  1.0000
  S   S1        1.0  0.52851  0.98076  0.70363  1.0000
  S   S2        1.0  0.02851  0.20363  0.48076  1.0000
  Fe  Fe1       1.0  0.22645  0.28268  0.25454  1.0000
  Fe  Fe2       1.0  0.72645  0.75454  0.78268  1.0000
  Fe  Fe3       1.0  0.83645  0.43626  0.40858  1.0000
  Fe  Fe4       1.0  0.33645  0.90858  0.93626  1.0000
