data_image0
_chemical_formula_structural       Li8O6S2Fe4
_chemical_formula_sum              "Li8 O6 S2 Fe4"
_cell_length_a       5.22865
_cell_length_b       5.2939
_cell_length_c       11.31
_cell_angle_alpha    90
_cell_angle_beta     90
_cell_angle_gamma    119.516

_space_group_name_H-M_alt    "P 1"
_space_group_IT_number       1

loop_
  _space_group_symop_operation_xyz
  'x, y, z'

loop_
  _atom_site_type_symbol
  _atom_site_label
  _atom_site_symmetry_multiplicity
  _atom_site_fract_x
  _atom_site_fract_y
  _atom_site_fract_z
  _atom_site_occupancy
  Li  Li1       1.0  0.35320  0.83548  0.91525  1.0000
  Li  Li2       1.0  0.64680  0.16452  0.41525  1.0000
  Li  Li3       1.0  0.64680  0.16452  0.08475  1.0000
  Li  Li4       1.0  0.35320  0.83548  0.58475  1.0000
  Li  Li5       1.0  0.96839  0.13339  0.58353  1.0000
  Li  Li6       1.0  0.03161  0.86661  0.08353  1.0000
  Li  Li7       1.0  0.03161  0.86661  0.41647  1.0000
  Li  Li8       1.0  0.96839  0.13339  0.91647  1.0000
  O   O1        1.0  0.32940  0.16134  0.96911  1.0000
  O   O2        1.0  0.67060  0.83866  0.46911  1.0000
  O   O3        1.0  0.67060  0.83866  0.03089  1.0000
  O   O4        1.0  0.32940  0.16134  0.53089  1.0000
  O   O5        1.0  0.00000  0.50000  0.00000  1.0000
  O   O6        1.0  0.00000  0.50000  0.50000  1.0000
  S   S1        1.0  0.33445  0.19726  0.25000  1.0000
  S   S2        1.0  0.66555  0.80274  0.75000  1.0000
  Fe  Fe1       1.0  0.67753  0.51633  0.58754  1.0000
  Fe  Fe2       1.0  0.32247  0.48367  0.08754  1.0000
  Fe  Fe3       1.0  0.32247  0.48367  0.41246  1.0000
  Fe  Fe4       1.0  0.67753  0.51633  0.91246  1.0000
