data_image0
_chemical_formula_structural       Li3O2S4Fe3
_chemical_formula_sum              "Li3 O2 S4 Fe3"
_cell_length_a       5.91323
_cell_length_b       6.14771
_cell_length_c       6.19773
_cell_angle_alpha    85.7672
_cell_angle_beta     85.4157
_cell_angle_gamma    61.6416

_space_group_name_H-M_alt    "P 1"
_space_group_IT_number       1

loop_
  _space_group_symop_operation_xyz
  'x, y, z'

loop_
  _atom_site_type_symbol
  _atom_site_label
  _atom_site_symmetry_multiplicity
  _atom_site_fract_x
  _atom_site_fract_y
  _atom_site_fract_z
  _atom_site_occupancy
  Li  Li1       1.0  0.02324  0.81514  0.17113  1.0000
  Li  Li2       1.0  0.97676  0.18486  0.82887  1.0000
  Li  Li3       1.0  0.00000  0.50000  0.50000  1.0000
  O   O1        1.0  0.76957  0.74978  0.31916  1.0000
  O   O2        1.0  0.23043  0.25022  0.68084  1.0000
  S   S1        1.0  0.46552  0.44050  0.21897  1.0000
  S   S2        1.0  0.53448  0.55950  0.78103  1.0000
  S   S3        1.0  0.20019  0.10301  0.17612  1.0000
  S   S4        1.0  0.79981  0.89699  0.82388  1.0000
  Fe  Fe1       1.0  0.39701  0.27029  0.92170  1.0000
  Fe  Fe2       1.0  0.60299  0.72971  0.07830  1.0000
  Fe  Fe3       1.0  0.50000  0.00000  0.50000  1.0000
