TITL LFSO-Li4FeS2O-200910-105656-2defd3 0.0403 160.317775 -2.70851515E+003 -3.99997 4.13080 8 (Amm2) n - 1
REM
REM Run started: Thu, 10 Sep 2020 11:58:13 +0100 in /lustre/scratch/uccabz1/launch_tmp/launcher_2020-09-10-09-56-54-473364
REM CASTEP 20.1 from code version af48c487+ pr-geom-scf-spinfix Tue Jun 2 15:39:59 2020 +0100
REM Functional Perdew Burke Ernzerhof Relativity Koelling-Harmon Dispersion off
REM Cut-off 340.0000 eV Grid scale 1.7500 Gmax 16.5316 1/A FBSC none
REM MP grid 4 2 4 Offset 0.000 0.000 0.000 No. kpts 8 Spacing 0.07
REM Total runtime: 4105.14 s
REM Overall efficiency: 83.5714 %
REM
REM
REM
REM compiler GCC version 4.9.2
REM options -cpp -iprefix /lustre/shared/ucl/apps/gcc/4.9.2/bin/../lib/gcc/x86_64-unknown-linux-gnu/4.9.2/ -mtune=corei7 -march=x86-64 -g -Og
REM COMMAND_LINE
REM seed -209231928 1016092010 1086619870 1060119368 464124071 431835736 -1922222155 -665600196 429182165 -1740954772 1914275285 230666096
REM
REM S 3|1.8|5|6|7|30:31:32(qc=5)
REM O 2|1.5|12|13|15|20:21(qc=5)
REM Li 1|1.3|8|9|10|10U:20(qc=5)
REM Fe 3|2.2|2.0|1.0|8|9|10|40:41:32(qc=5)
REM 
CELL 1.54180    4.56080    8.06656    5.61184   90.00000  129.05790   90.00000
LATT -1
SFAC Li O  S  Fe 
Li     1 -0.4792600000000  0.1701160000000  0.4787010000000 1.0   0.02
Li     1 -0.4792600000000 -0.1701160000000  0.4787010000000 1.0   0.02
Li     1 -0.1671010000000 -0.1698300000000  0.1401160000000 1.0   0.02
Li     1 -0.1671010000000  0.1698300000000  0.1401160000000 1.0   0.02
O      2 -0.8275340000000  0.0000000000000  0.1879490000000 1.0  -0.21
S      3  0.1778460000000  0.2459520000000 -0.3200340000000 1.0  -0.22
S      3  0.1778460000000 -0.2459520000000 -0.3200340000000 1.0  -0.22
Fe     4  0.1788010000000  0.0000000000000 -0.1394570000000 1.0  -3.41
END
