TITL LFSO-Li2Fe2S2O-200913-125117-b15d1b -0.0469 161.602654 -3.17205881E+003 -7.36220 7.46797 7 (Fmm2) n - 1
REM
REM Run started: Sun, 13 Sep 2020 14:10:13 +0100 in /lustre/scratch/uccabz1/launch_tmp/launcher_2020-09-13-11-51-15-191670
REM CASTEP 20.1 from code version af48c487+ pr-geom-scf-spinfix Tue Jun 2 15:39:59 2020 +0100
REM Functional Perdew Burke Ernzerhof Relativity Koelling-Harmon Dispersion off
REM Cut-off 340.0000 eV Grid scale 1.7500 Gmax 16.5316 1/A FBSC none
REM MP grid 3 3 4 Offset 0.000 0.000 0.000 No. kpts 12 Spacing 0.07
REM Total runtime: 4921.4 s
REM Overall efficiency: 94.2222 %
REM
REM
REM
REM compiler GCC version 4.9.2
REM options -cpp -iprefix /lustre/shared/ucl/apps/gcc/4.9.2/bin/../lib/gcc/x86_64-unknown-linux-gnu/4.9.2/ -mtune=corei7 -march=x86-64 -g -Og
REM COMMAND_LINE
REM seed 2036421006 -2024055376 -915129051 488292283 2061349452 954291305 -1489962204 -4412439 192733935 -1927715337 928660235 1626068507
REM
REM S 3|1.8|5|6|7|30:31:32(qc=5)
REM O 2|1.5|12|13|15|20:21(qc=5)
REM Li 1|1.3|8|9|10|10U:20(qc=5)
REM Fe 3|2.2|2.0|1.0|8|9|10|40:41:32(qc=5)
REM 
CELL 1.54180    6.23304    6.23304    5.68290  110.36518  110.36518  111.43379
LATT -1
SFAC Li O  S  Fe 
Li     1 -0.0613110000000 -0.6488570000000  0.2898320000000 1.0  -0.01
Li     1  0.6488570000000  0.0613110000000 -0.2898320000000 1.0  -0.01
O      2 -0.0749460000000  0.0749460000000  0.0000000000000 1.0  -0.29
S      3 -0.3368940000000  0.3368940000000 -0.5000000000000 1.0  -0.20
S      3  0.1631060000000 -0.1631060000000  0.5000000000000 1.0  -0.20
Fe     4  0.2030670000000  0.0628240000000  0.2658910000000 1.0  -3.32
Fe     4 -0.0628240000000 -0.2030670000000 -0.2658910000000 1.0  -3.32
END
