TITL LFSO-Li2Fe3S2O2-200921-024010-5b0524 -0.0262 180.752311 -4.47192313E+003 4.03290 4.24023 9 (R3) n - 1
REM
REM Run started: Mon, 21 Sep 2020 06:30:36 +0100 in /lustre/scratch/uccabz1/launch_tmp/launcher_2020-09-21-01-40-08-512366
REM CASTEP 20.1 from code version af48c487+ pr-geom-scf-spinfix Tue Jun 2 15:39:59 2020 +0100
REM Functional Perdew Burke Ernzerhof Relativity Koelling-Harmon Dispersion off
REM Cut-off 340.0000 eV Grid scale 1.7500 Gmax 16.5316 1/A FBSC none
REM MP grid 4 4 2 Offset 0.000 0.000 0.000 No. kpts 16 Spacing 0.07
REM Total runtime: 13888.8 s
REM Overall efficiency: 95.4444 %
REM
REM
REM
REM compiler GCC version 4.9.2
REM options -cpp -iprefix /lustre/shared/ucl/apps/gcc/4.9.2/bin/../lib/gcc/x86_64-unknown-linux-gnu/4.9.2/ -mtune=corei7 -march=x86-64 -g -Og
REM COMMAND_LINE
REM seed -1034544538 -1045965856 -695125005 -2083608008 -593606856 -1384378523 -1780784846 -24985698 -344975680 -1695048165 -919705213 -1154273152
REM
REM S 3|1.8|5|6|7|30:31:32(qc=5)
REM O 2|1.5|12|13|15|20:21(qc=5)
REM Li 1|1.3|8|9|10|10U:20(qc=5)
REM Fe 3|2.2|2.0|1.0|8|9|10|40:41:32(qc=5)
REM 
CELL 1.54180    5.33325    5.33325    7.95773   70.42147   70.42147   60.00000
LATT -1
SFAC Li O  S  Fe 
Li     1 -0.3962690000000 -0.3962690000000  1.1888070000000 1.0  -0.00
Li     1 -0.2274440000000 -0.2274440000000  0.6823320000000 1.0   0.01
O      2  0.5197900000000  0.5197900000000 -1.5593700000000 1.0   0.12
O      2  0.2395920000000  0.2395920000000 -0.7187770000000 1.0  -0.01
S      3 -0.1199130000000 -0.1199130000000  0.3597380000000 1.0   0.07
S      3  0.1030930000000  0.1030930000000 -0.3092800000000 1.0   0.06
Fe     4  0.2173100000000 -0.0933130000000 -0.5529450000000 1.0   1.27
Fe     4  0.4289480000000  0.2173100000000 -0.5529450000000 1.0   1.27
Fe     4 -0.0933130000000  0.4289480000000 -0.5529450000000 1.0   1.27
END
