TITL LFSO-Li3Fe3SO5-200927-062156-2ed666 0.0353 308.785897 -1.13666675E+004 19.0013 19.5915 24 (Iba2) n - 1
REM
REM Run started: Sun, 27 Sep 2020 17:47:17 +0100 in /lustre/scratch/uccabz1/launch_tmp/launcher_2020-09-27-05-21-54-518961
REM CASTEP 20.1 from code version af48c487+ pr-geom-scf-spinfix Tue Jun 2 15:39:59 2020 +0100
REM Functional Perdew Burke Ernzerhof Relativity Koelling-Harmon Dispersion off
REM Cut-off 340.0000 eV Grid scale 1.7500 Gmax 16.5316 1/A FBSC none
REM MP grid 3 3 3 Offset 0.000 0.000 0.000 No. kpts 8 Spacing 0.07
REM Total runtime: 41444.3 s
REM Overall efficiency: 92.3333 %
REM
REM
REM
REM compiler GCC version 4.9.2
REM options -cpp -iprefix /lustre/shared/ucl/apps/gcc/4.9.2/bin/../lib/gcc/x86_64-unknown-linux-gnu/4.9.2/ -mtune=corei7 -march=x86-64 -g -Og
REM COMMAND_LINE
REM seed 1495126362 -1902394198 2012427259 318673962 -738929214 1702707213 1870690750 -900115032 1095701314 1563672073 1821664651 -200090809
REM
REM S 3|1.8|5|6|7|30:31:32(qc=5)
REM O 2|1.5|12|13|15|20:21(qc=5)
REM Li 1|1.3|8|9|10|10U:20(qc=5)
REM Fe 3|2.2|2.0|1.0|8|9|10|40:41:32(qc=5)
REM 
CELL 1.54180    6.34322    8.88489    8.88489   41.86019   69.08598   69.08598
LATT -1
SFAC Li O  S  Fe 
Li     1 -0.0570980000000 -0.4528950000000  0.0181740000000 1.0   0.02
Li     1 -0.5081800000000  0.0181740000000 -0.4528950000000 1.0   0.02
Li     1 -0.0081800000000  0.0471050000000 -0.4818260000000 1.0   0.02
Li     1  0.4429020000000 -0.4818260000000  0.0471050000000 1.0   0.02
Li     1 -0.1499140000000  0.1499140000000  0.1499140000000 1.0   0.03
Li     1  0.3500860000000 -0.3500860000000 -0.3500860000000 1.0   0.03
O      2  0.3110060000000 -0.0088570000000  0.4273440000000 1.0   0.26
O      2  0.2705070000000  0.4273440000000 -0.0088570000000 1.0   0.26
O      2 -0.2294930000000 -0.5088570000000 -0.0726560000000 1.0   0.26
O      2 -0.1889940000000 -0.0726560000000 -0.5088570000000 1.0   0.26
O      2 -0.3278570000000  0.0896910000000  0.0795150000000 1.0   0.27
O      2  0.1586520000000  0.0795150000000  0.0896910000000 1.0   0.27
O      2 -0.3413480000000 -0.4103090000000 -0.4204850000000 1.0   0.27
O      2  0.1721430000000 -0.4204850000000 -0.4103090000000 1.0   0.27
O      2 -0.3864770000000 -0.1135230000000 -0.1135230000000 1.0   0.33
O      2  0.1135230000000  0.3864770000000  0.3864770000000 1.0   0.33
S      3 -0.3980950000000  0.3980950000000  0.3980950000000 1.0   0.18
S      3  0.1019050000000 -0.1019050000000 -0.1019050000000 1.0   0.18
Fe     4 -0.1713430000000  0.4751710000000  0.4671890000000 1.0   2.68
Fe     4  0.2289830000000  0.4671890000000  0.4751710000000 1.0   2.68
Fe     4 -0.2710170000000 -0.0248290000000 -0.0328110000000 1.0   2.68
Fe     4  0.3286570000000 -0.0328110000000 -0.0248290000000 1.0   2.68
Fe     4 -0.1393070000000 -0.3606930000000 -0.3606930000000 1.0   2.49
Fe     4  0.3606930000000  0.1393070000000  0.1393070000000 1.0   2.49
END
