TITL LFSO-Li2Fe4S3O2-200912-050737-5041ba 0.0813 237.804461 -5.64041302E+003 9.90787 10.2586 11 (P3) n - 1
REM
REM Run started: Sat, 12 Sep 2020 07:56:19 +0100 in /lustre/scratch/uccabz1/launch_tmp/launcher_2020-09-12-04-07-34-792113
REM CASTEP 20.1 from code version af48c487+ pr-geom-scf-spinfix Tue Jun 2 15:39:59 2020 +0100
REM Functional Perdew Burke Ernzerhof Relativity Koelling-Harmon Dispersion off
REM Cut-off 340.0000 eV Grid scale 1.7500 Gmax 16.5316 1/A FBSC none
REM MP grid 3 3 3 Offset 0.000 0.000 0.000 No. kpts 8 Spacing 0.07
REM Total runtime: 11646.3 s
REM Overall efficiency: 97.125 %
REM
REM
REM
REM compiler GCC version 4.9.2
REM options -cpp -iprefix /lustre/shared/ucl/apps/gcc/4.9.2/bin/../lib/gcc/x86_64-unknown-linux-gnu/4.9.2/ -mtune=corei7 -march=x86-64 -g -Og
REM COMMAND_LINE
REM seed -454331333 -1512089201 -1721380957 -1459592436 -1706692929 -845551823 -1731785190 1911883060 -2113528400 -713165096 -1232072728 914577661
REM
REM S 3|1.8|5|6|7|30:31:32(qc=5)
REM O 2|1.5|12|13|15|20:21(qc=5)
REM Li 1|1.3|8|9|10|10U:20(qc=5)
REM Fe 3|2.2|2.0|1.0|8|9|10|40:41:32(qc=5)
REM 
CELL 1.54180    6.24309    6.24309    7.04515   90.00000   90.00000  120.00000
LATT -1
SFAC Li O  S  Fe 
Li     1  0.0000000000000 -0.0000000000000  0.0334250000000 1.0  -0.07
Li     1 -0.3333330000000  0.3333330000000 -0.5101550000000 1.0   0.02
O      2 -0.3333330000000  0.3333330000000  0.2386670000000 1.0   0.46
O      2  0.3333330000000 -0.3333330000000 -0.0002390000000 1.0   0.20
S      3 -0.2660140000000 -0.3302930000000 -0.2255060000000 1.0   0.04
S      3 -0.0642790000000  0.2660140000000 -0.2255060000000 1.0   0.04
S      3  0.3302930000000  0.0642790000000 -0.2255060000000 1.0   0.04
Fe     4  0.0772610000000 -0.3376060000000 -0.1424970000000 1.0   2.06
Fe     4 -0.4148680000000 -0.0772610000000 -0.1424970000000 1.0   2.06
Fe     4  0.3376060000000  0.4148680000000 -0.1424970000000 1.0   2.06
Fe     4 -0.3333330000000  0.3333330000000 -0.0056500000000 1.0   2.98
END
