TITL LFSO-Li3Fe3S2O4-200929-175732-c0a8a0 -0.0029 404.717400 -1.10992953E+004 20.1177 20.7487 24 (Cc) n - 1
REM
REM Run started: Wed, 30 Sep 2020 18:29:58 +0100 in /lustre/scratch/uccabz1/launch_tmp/launcher_2020-09-29-16-57-30-338556
REM CASTEP 20.1 from code version af48c487+ pr-geom-scf-spinfix Tue Jun 2 15:39:59 2020 +0100
REM Functional Perdew Burke Ernzerhof Relativity Koelling-Harmon Dispersion off
REM Cut-off 340.0000 eV Grid scale 1.7500 Gmax 16.5316 1/A FBSC none
REM MP grid 5 2 2 Offset 0.000 0.000 0.000 No. kpts 10 Spacing 0.07
REM Total runtime: 92068.5 s
REM Overall efficiency: 80 %
REM
REM
REM
REM compiler GCC version 4.9.2
REM options -cpp -iprefix /lustre/shared/ucl/apps/gcc/4.9.2/bin/../lib/gcc/x86_64-unknown-linux-gnu/4.9.2/ -mtune=corei7 -march=x86-64 -g -Og
REM COMMAND_LINE
REM seed -1961492489 754858239 -1107921157 -71185941 265721807 -31598701 -688882937 -1152550107 954400064 1674812483 727303456 -1646128079
REM
REM S 3|1.8|5|6|7|30:31:32(qc=5)
REM O 2|1.5|12|13|15|20:21(qc=5)
REM Li 1|1.3|8|9|10|10U:20(qc=5)
REM Fe 3|2.2|2.0|1.0|8|9|10|40:41:32(qc=5)
REM 
CELL 1.54180    3.48443   11.37920   11.68697   60.86737   90.43989   90.90360
LATT -1
SFAC Li O  S  Fe 
Li     1 -0.0301600000000  0.4929760000000  0.0708690000000 1.0   0.01
Li     1  0.4698400000000  0.5638460000000 -0.0708690000000 1.0   0.01
Li     1 -0.0323170000000 -0.1816290000000  0.3265630000000 1.0   0.00
Li     1  0.4676830000000  0.1449340000000 -0.3265630000000 1.0   0.00
Li     1  0.4343910000000 -0.1200260000000 -0.4858370000000 1.0  -0.03
Li     1 -0.0656090000000  0.3941370000000  0.4858370000000 1.0  -0.03
O      2  0.4690560000000  0.4684960000000  0.1205550000000 1.0   0.37
O      2 -0.0309440000000 -0.4109490000000 -0.1205550000000 1.0   0.37
O      2 -0.0455510000000 -0.3351660000000  0.2920970000000 1.0   0.25
O      2  0.4544490000000 -0.0430690000000 -0.2920970000000 1.0   0.25
O      2 -0.5582120000000  0.4458560000000  0.3949290000000 1.0   0.19
O      2 -0.0582120000000 -0.1592150000000 -0.3949290000000 1.0   0.19
O      2 -0.5386010000000 -0.2349670000000  0.4042360000000 1.0   0.23
O      2 -0.0386010000000  0.1692690000000 -0.4042360000000 1.0   0.23
S      3 -0.0397720000000  0.1143250000000  0.0622920000000 1.0  -0.05
S      3 -0.5397720000000  0.1766170000000 -0.0622920000000 1.0  -0.05
S      3  0.4257770000000  0.1391110000000  0.3306230000000 1.0   0.19
S      3 -0.0742230000000  0.4697350000000 -0.3306230000000 1.0   0.19
Fe     4  0.4278780000000 -0.3940190000000 -0.4322820000000 1.0   2.99
Fe     4 -0.0721220000000  0.1736990000000  0.4322820000000 1.0   2.99
Fe     4 -0.0580290000000 -0.3458360000000 -0.2929170000000 1.0   3.20
Fe     4 -0.5580290000000  0.3612470000000  0.2929170000000 1.0   3.20
Fe     4 -0.0468250000000 -0.0313840000000 -0.3369920000000 1.0   2.71
Fe     4 -0.5468250000000 -0.3683770000000  0.3369920000000 1.0   2.71
END
