TITL LFSO-Li5FeSO3-200910-071204-7891de 0.0093 113.632099 -3.48107148E+003 2.72561 2.87343 10 (Pm) n - 1
REM
REM Run started: Thu, 10 Sep 2020 09:24:35 +0100 in /lustre/scratch/uccabz1/launch_tmp/launcher_2020-09-10-06-12-02-740700
REM CASTEP 20.1 from code version af48c487+ pr-geom-scf-spinfix Tue Jun 2 15:39:59 2020 +0100
REM Functional Perdew Burke Ernzerhof Relativity Koelling-Harmon Dispersion off
REM Cut-off 340.0000 eV Grid scale 1.7500 Gmax 16.5316 1/A FBSC none
REM MP grid 6 3 3 Offset 0.000 0.000 0.000 No. kpts 18 Spacing 0.07
REM Total runtime: 8633.91 s
REM Overall efficiency: 95.3333 %
REM
REM
REM
REM compiler GCC version 4.9.2
REM options -cpp -iprefix /lustre/shared/ucl/apps/gcc/4.9.2/bin/../lib/gcc/x86_64-unknown-linux-gnu/4.9.2/ -mtune=corei7 -march=x86-64 -g -Og
REM COMMAND_LINE
REM seed -1888231270 1850305755 1262559722 -84468463 -1486234657 1733307798 -62934607 1617463151 184314340 2105500479 2113820747 1467565643
REM
REM S 3|1.8|5|6|7|30:31:32(qc=5)
REM O 2|1.5|12|13|15|20:21(qc=5)
REM Li 1|1.3|8|9|10|10U:20(qc=5)
REM Fe 3|2.2|2.0|1.0|8|9|10|40:41:32(qc=5)
REM 
CELL 1.54180    3.09937    6.21844    7.69561   90.00000  129.99229   90.00000
LATT -1
SFAC Li O  S  Fe 
Li     1  0.6853530000000 -0.1962930000000  0.1268690000000 1.0  -0.04
Li     1  0.6853530000000  0.1962930000000  0.1268690000000 1.0  -0.04
Li     1 -0.2978600000000  0.2094270000000 -0.2138910000000 1.0   0.02
Li     1 -0.2978600000000 -0.2094270000000 -0.2138910000000 1.0   0.02
Li     1  0.2846200000000 -0.5000000000000 -0.4891740000000 1.0  -0.01
O      2  0.2020920000000 -0.1949590000000  0.4541140000000 1.0   0.04
O      2  0.2020920000000  0.1949590000000  0.4541140000000 1.0   0.04
O      2  0.0758600000000  0.0000000000000  0.0509240000000 1.0   0.18
S      3 -0.6651560000000 -0.5000000000000 -0.1314290000000 1.0   0.00
Fe     4 -0.3523120000000  0.0000000000000 -0.5818090000000 1.0   2.52
END
