TITL LFSO-Li6FeS3O-200910-000157-17456c 0.5294 183.415517 -3.41390628E+003 -3.99993 4.17625 11 (Cm) n - 1
REM
REM Run started: Thu, 10 Sep 2020 06:58:36 +0100 in /lustre/scratch/uccabz1/launch_tmp/launcher_2020-09-09-23-01-55-453536
REM CASTEP 20.1 from code version af48c487+ pr-geom-scf-spinfix Tue Jun 2 15:39:59 2020 +0100
REM Functional Perdew Burke Ernzerhof Relativity Koelling-Harmon Dispersion off
REM Cut-off 340.0000 eV Grid scale 1.7500 Gmax 16.5316 1/A FBSC none
REM MP grid 7 7 4 Offset 0.000 0.000 0.000 No. kpts 56 Spacing 0.07
REM Total runtime: 37421.7 s
REM Overall efficiency: 88.6667 %
REM
REM
REM
REM compiler GCC version 4.9.2
REM options -cpp -iprefix /lustre/shared/ucl/apps/gcc/4.9.2/bin/../lib/gcc/x86_64-unknown-linux-gnu/4.9.2/ -mtune=corei7 -march=x86-64 -g -Og
REM COMMAND_LINE
REM seed 1197106223 1592516729 780921224 -424547330 659052684 -1090701286 2117190644 88779303 -2015270582 -889019297 -839270093 -1187515926
REM
REM S 3|1.8|5|6|7|30:31:32(qc=5)
REM O 2|1.5|12|13|15|20:21(qc=5)
REM Li 1|1.3|8|9|10|10U:20(qc=5)
REM Fe 3|2.2|2.0|1.0|8|9|10|40:41:32(qc=5)
REM 
CELL 1.54180    7.22735    7.22735   18.52827  129.63721  129.63721   98.91735
LATT -1
SFAC Li O  S  Fe 
Li     1  0.3579990000000 -0.4209430000000  0.5468310000000 1.0  -0.00
Li     1 -0.4209430000000  0.3579990000000  0.5468310000000 1.0  -0.00
Li     1 -0.6280310000000 -0.3999870000000  0.1667170000000 1.0  -0.04
Li     1 -0.3999870000000 -0.6280310000000  0.1667170000000 1.0  -0.04
Li     1  0.6324710000000  0.4133070000000 -0.0373680000000 1.0   0.05
Li     1  0.4133070000000  0.6324710000000 -0.0373680000000 1.0   0.05
O      2  0.5131180000000  0.5131180000000  0.0695540000000 1.0  -0.01
S      3 -0.6364760000000 -0.2544970000000 -0.5723750000000 1.0  -0.13
S      3 -0.2544970000000 -0.6364760000000 -0.5723750000000 1.0  -0.13
S      3  0.5087540000000  0.5087540000000  0.7518700000000 1.0  -0.25
Fe     4 -0.3586830000000 -0.3586830000000 -0.5900100000000 1.0  -3.51
END
