TITL LFSO-Li4Fe3S4O-200925-180345-d11379 0.0243 432.854063 -1.00866427E+004 -17.7583 18.4054 24 (P3) n - 1
REM
REM Run started: Sat, 26 Sep 2020 22:26:08 +0100 in /lustre/scratch/uccabz1/launch_tmp/launcher_2020-09-26-07-12-43-515367
REM CASTEP 20.1 from code version af48c487+ pr-geom-scf-spinfix Tue Jun 2 15:39:59 2020 +0100
REM Functional Perdew Burke Ernzerhof Relativity Koelling-Harmon Dispersion off
REM Cut-off 340.0000 eV Grid scale 1.7500 Gmax 16.5316 1/A FBSC none
REM MP grid 3 2 2 Offset 0.000 0.000 0.000 No. kpts 6 Spacing 0.07
REM Total runtime: 98639.7 s
REM Overall efficiency: 98.9167 %
REM
REM
REM
REM compiler GCC version 4.9.2
REM options -cpp -iprefix /lustre/shared/ucl/apps/gcc/4.9.2/bin/../lib/gcc/x86_64-unknown-linux-gnu/4.9.2/ -mtune=corei7 -march=x86-64 -g -Og
REM COMMAND_LINE
REM seed -765903256 1881872007 1377828327 -330538518 1004323401 -1639550299 145336645 380510859 -1999766990 503617117 -11931776 956904879
REM
REM S 3|1.8|5|6|7|30:31:32(qc=5)
REM O 2|1.5|12|13|15|20:21(qc=5)
REM Li 1|1.3|8|9|10|10U:20(qc=5)
REM Fe 3|2.2|2.0|1.0|8|9|10|40:41:32(qc=5)
REM 
CELL 1.54180    6.08303    9.06453    9.06453  120.00000   90.00000   90.00000
LATT -1
SFAC Li O  S  Fe 
Li     1  0.5147990000000 -0.2460820000000 -0.4738960000000 1.0  -0.03
Li     1  0.5147990000000  0.4738960000000  0.2278130000000 1.0  -0.03
Li     1  0.5147990000000 -0.2278130000000  0.2460820000000 1.0  -0.03
Li     1  0.1142170000000  0.5845550000000  0.4409940000000 1.0   0.08
Li     1  0.1142170000000 -0.4409940000000  0.1435600000000 1.0   0.08
Li     1  0.1142170000000 -0.1435600000000 -0.5845550000000 1.0   0.08
Li     1  0.4013370000000  0.0000000000000 -0.0000000000000 1.0  -0.10
Li     1 -0.1468050000000  0.0000000000000 -0.0000000000000 1.0   0.01
O      2  0.3151720000000 -0.3333330000000  0.3333330000000 1.0  -0.05
O      2 -0.3879750000000  0.3333340000000 -0.3333340000000 1.0  -0.10
S      3  0.2330420000000  0.0100430000000  0.2626250000000 1.0  -0.16
S      3  0.2330420000000 -0.2626250000000 -0.2525830000000 1.0  -0.16
S      3  0.2330420000000  0.2525830000000 -0.0100430000000 1.0  -0.16
S      3 -0.3205070000000  0.0562920000000 -0.2243520000000 1.0  -0.13
S      3 -0.3205070000000  0.2243520000000  0.2806430000000 1.0  -0.13
S      3 -0.3205070000000 -0.2806430000000 -0.0562920000000 1.0  -0.13
S      3  0.1418140000000  0.3333340000000 -0.3333340000000 1.0  -0.06
S      3 -0.1863890000000 -0.3333330000000  0.3333330000000 1.0  -0.06
Fe     4  0.4289170000000  0.2413900000000 -0.2279320000000 1.0  -2.40
Fe     4  0.4289170000000  0.2279320000000  0.4693210000000 1.0  -2.40
Fe     4  0.4289170000000 -0.4693210000000 -0.2413900000000 1.0  -2.40
Fe     4 -0.0230760000000  0.2065640000000 -0.2051080000000 1.0  -3.16
Fe     4 -0.0230760000000  0.2051080000000  0.4116710000000 1.0  -3.16
Fe     4 -0.0230760000000 -0.4116710000000 -0.2065640000000 1.0  -3.16
END
