TITL LFSO-Li3Fe3S4O2-200930-025534-9de28b -0.1668 543.890920 -1.05606550E+004 -2.08938 10.4764 24 (Pm) n - 1
REM
REM Run started: Wed, 30 Sep 2020 14:32:42 +0100 in /lustre/scratch/uccabz1/launch_tmp/launcher_2020-09-30-08-32-19-389662
REM CASTEP 20.1 from code version af48c487+ pr-geom-scf-spinfix Tue Jun 2 15:39:59 2020 +0100
REM Functional Perdew Burke Ernzerhof Relativity Koelling-Harmon Dispersion off
REM Cut-off 340.0000 eV Grid scale 1.7500 Gmax 16.5316 1/A FBSC none
REM MP grid 2 2 2 Offset 0.000 0.000 0.000 No. kpts 2 Spacing 0.07
REM Total runtime: 40224.3 s
REM Overall efficiency: 83.4167 %
REM
REM
REM
REM compiler GCC version 4.9.2
REM options -cpp -iprefix /lustre/shared/ucl/apps/gcc/4.9.2/bin/../lib/gcc/x86_64-unknown-linux-gnu/4.9.2/ -mtune=corei7 -march=x86-64 -g -Og
REM COMMAND_LINE
REM seed -1391793378 1438927353 987260133 -2023979659 -1554859217 -1698734820 -1182394324 282753657 2088248167 1776259299 -823083789 517449391
REM
REM S 3|1.8|5|6|7|30:31:32(qc=5)
REM O 2|1.5|12|13|15|20:21(qc=5)
REM Li 1|1.3|8|9|10|10U:20(qc=5)
REM Fe 3|2.2|2.0|1.0|8|9|10|40:41:32(qc=5)
REM 
CELL 1.54180    8.09453    8.49896    9.30330  121.80999   90.00000   90.00000
LATT -1
SFAC Li O  S  Fe 
Li     1 -0.2506870000000 -0.1081330000000 -0.3188610000000 1.0   0.01
Li     1  0.2506870000000 -0.1081330000000 -0.3188610000000 1.0   0.01
Li     1 -0.2254060000000 -0.4681370000000 -0.5880390000000 1.0  -0.02
Li     1  0.2254060000000 -0.4681370000000 -0.5880390000000 1.0  -0.02
Li     1  0.2248370000000 -0.2579270000000 -0.1349260000000 1.0  -0.02
Li     1 -0.2248370000000 -0.2579270000000 -0.1349260000000 1.0  -0.02
O      2 -0.2957460000000 -0.3357650000000 -0.3511220000000 1.0   0.13
O      2  0.2957460000000 -0.3357650000000 -0.3511220000000 1.0   0.13
O      2 -0.1905140000000  0.4840020000000  0.1965920000000 1.0  -0.25
O      2  0.1905140000000  0.4840020000000  0.1965920000000 1.0  -0.25
S      3 -0.1360060000000  0.0685030000000 -0.0379950000000 1.0   0.04
S      3  0.1360060000000  0.0685030000000 -0.0379950000000 1.0   0.04
S      3 -0.2648820000000  0.2271190000000  0.3972940000000 1.0  -0.01
S      3  0.2648820000000  0.2271190000000  0.3972940000000 1.0  -0.01
S      3 -0.2500100000000 -0.5841990000000 -0.1747150000000 1.0   0.00
S      3  0.2500100000000 -0.5841990000000 -0.1747150000000 1.0   0.00
S      3 -0.1282900000000 -0.0976740000000  0.4513510000000 1.0  -0.06
S      3  0.1282900000000 -0.0976740000000  0.4513510000000 1.0  -0.06
Fe     4 -0.1471410000000  0.3366600000000 -0.0036770000000 1.0  -1.10
Fe     4  0.1471410000000  0.3366600000000 -0.0036770000000 1.0  -1.10
Fe     4  0.1313810000000  0.2064540000000 -0.4140480000000 1.0  -1.44
Fe     4 -0.1313810000000  0.2064540000000 -0.4140480000000 1.0  -1.44
Fe     4 -0.3630620000000  0.4501120000000 -0.3740170000000 1.0   1.66
Fe     4  0.3630620000000  0.4501120000000 -0.3740170000000 1.0   1.66
END
