TITL LFSO-Li2Fe4S3O2-200912-043431-aff9f0 0.3635 367.413944 -1.12787501E+004 -7.17661 9.42615 22 (Aea2) n - 1
REM
REM Run started: Mon, 14 Sep 2020 05:57:23 +0100 in /lustre/scratch/uccabz1/launch_tmp/launcher_2020-09-13-13-42-21-901094
REM CASTEP 20.1 from code version af48c487+ pr-geom-scf-spinfix Tue Jun 2 15:39:59 2020 +0100
REM Functional Perdew Burke Ernzerhof Relativity Koelling-Harmon Dispersion off
REM Cut-off 340.0000 eV Grid scale 1.7500 Gmax 16.5316 1/A FBSC none
REM MP grid 3 3 2 Offset 0.000 0.000 0.000 No. kpts 6 Spacing 0.07
REM Total runtime: 192750 s
REM Overall efficiency: 98.7273 %
REM
REM
REM
REM compiler GCC version 4.9.2
REM options -cpp -iprefix /lustre/shared/ucl/apps/gcc/4.9.2/bin/../lib/gcc/x86_64-unknown-linux-gnu/4.9.2/ -mtune=corei7 -march=x86-64 -g -Og
REM COMMAND_LINE
REM seed 1692331904 -549657970 734292408 495813124 -1305599189 -1808288431 -112464484 142644520 1263059483 -1309540469 1289793128 448471887
REM
REM S 3|1.8|5|6|7|30:31:32(qc=5)
REM O 2|1.5|12|13|15|20:21(qc=5)
REM Li 1|1.3|8|9|10|10U:20(qc=5)
REM Fe 3|2.2|2.0|1.0|8|9|10|40:41:32(qc=5)
REM 
CELL 1.54180    5.09348    5.84357   12.60415   90.00000  101.65720   90.00000
LATT -1
SFAC Li O  S  Fe 
Li     1  0.1525650000000 -0.2526370000000 -0.4545130000000 1.0   0.00
Li     1 -0.3929220000000  0.2526370000000  0.4545130000000 1.0   0.00
Li     1  0.1070780000000  0.2473630000000  0.4545130000000 1.0   0.00
Li     1 -0.3474350000000 -0.2473630000000 -0.4545130000000 1.0   0.00
O      2 -0.2795310000000 -0.1165280000000  0.1783500000000 1.0  -0.05
O      2 -0.4578810000000  0.1165280000000 -0.1783500000000 1.0  -0.05
O      2  0.0421190000000  0.3834720000000 -0.1783500000000 1.0  -0.05
O      2  0.2204690000000 -0.3834720000000  0.1783500000000 1.0  -0.05
S      3 -0.1691230000000 -0.0710450000000  0.4002710000000 1.0  -0.02
S      3  0.4306060000000  0.0710450000000 -0.4002710000000 1.0  -0.02
S      3 -0.0693940000000  0.4289550000000 -0.4002710000000 1.0  -0.02
S      3  0.3308770000000 -0.4289550000000  0.4002710000000 1.0  -0.02
S      3  0.1827550000000 -0.0000000000000 -0.0000000000000 1.0  -0.08
S      3 -0.3172450000000 -0.5000000000000 -0.0000000000000 1.0  -0.08
Fe     4  0.4369310000000 -0.2779100000000  0.0813130000000 1.0  -1.81
Fe     4  0.3556180000000  0.2779100000000 -0.0813130000000 1.0  -1.81
Fe     4 -0.1443820000000  0.2220900000000 -0.0813130000000 1.0  -1.81
Fe     4 -0.0630690000000 -0.2220900000000  0.0813130000000 1.0  -1.81
Fe     4  0.0148810000000 -0.2521390000000  0.2760460000000 1.0   0.12
Fe     4 -0.2611660000000  0.2521390000000 -0.2760460000000 1.0   0.12
Fe     4  0.2388340000000  0.2478610000000 -0.2760460000000 1.0   0.12
Fe     4  0.5148810000000 -0.2478610000000  0.2760460000000 1.0   0.12
END
