TITL LFSO-Li2Fe3S2O2-200921-024144-66c559 -0.0028 345.412706 -8.94669978E+003 19.8216 20.2913 18 (P3) n - 1
REM
REM Run started: Mon, 21 Sep 2020 12:46:13 +0100 in /lustre/scratch/uccabz1/launch_tmp/launcher_2020-09-21-01-41-43-162949
REM CASTEP 20.1 from code version af48c487+ pr-geom-scf-spinfix Tue Jun 2 15:39:59 2020 +0100
REM Functional Perdew Burke Ernzerhof Relativity Koelling-Harmon Dispersion off
REM Cut-off 340.0000 eV Grid scale 1.7500 Gmax 16.5316 1/A FBSC none
REM MP grid 3 3 3 Offset 0.000 0.000 0.000 No. kpts 8 Spacing 0.07
REM Total runtime: 36396.5 s
REM Overall efficiency: 83.1 %
REM
REM
REM
REM compiler GCC version 4.9.2
REM options -cpp -iprefix /lustre/shared/ucl/apps/gcc/4.9.2/bin/../lib/gcc/x86_64-unknown-linux-gnu/4.9.2/ -mtune=corei7 -march=x86-64 -g -Og
REM COMMAND_LINE
REM seed 1908680586 1113692875 928760635 1572022040 -521927743 719148210 -1776136463 1720565607 1885218873 332938688 -1944296520 989494605
REM
REM S 3|1.8|5|6|7|30:31:32(qc=5)
REM O 2|1.5|12|13|15|20:21(qc=5)
REM Li 1|1.3|8|9|10|10U:20(qc=5)
REM Fe 3|2.2|2.0|1.0|8|9|10|40:41:32(qc=5)
REM 
CELL 1.54180    7.49443    7.49443    7.10118   90.00000   90.00000  120.00000
LATT -1
SFAC Li O  S  Fe 
Li     1  0.0858140000000 -0.2538290000000  0.0857100000000 1.0   0.01
Li     1  0.2538290000000  0.3396430000000  0.0857100000000 1.0   0.01
Li     1 -0.3396430000000 -0.0858140000000  0.0857100000000 1.0   0.01
Li     1  0.3333330000000 -0.3333330000000 -0.2160280000000 1.0  -0.01
O      2  0.3408930000000  0.4315760000000 -0.1484850000000 1.0   0.31
O      2 -0.4315760000000 -0.0906830000000 -0.1484850000000 1.0   0.31
O      2  0.0906830000000 -0.3408930000000 -0.1484850000000 1.0   0.31
O      2 -0.3333330000000  0.3333330000000 -0.5113000000000 1.0   0.30
S      3  0.1468510000000 -0.1926920000000  0.4150730000000 1.0   0.28
S      3  0.1926920000000  0.3395430000000  0.4150730000000 1.0   0.28
S      3 -0.3395430000000 -0.1468510000000  0.4150730000000 1.0   0.28
S      3  0.0000000000000 -0.0000000000000 -0.0595280000000 1.0   0.07
Fe     4  0.1646390000000  0.2281030000000 -0.2876110000000 1.0   2.37
Fe     4 -0.2281030000000 -0.0634640000000 -0.2876110000000 1.0   2.37
Fe     4  0.0634640000000 -0.1646390000000 -0.2876110000000 1.0   2.37
Fe     4 -0.2168810000000 -0.3675890000000  0.4936200000000 1.0   3.52
Fe     4  0.3675890000000  0.1507080000000  0.4936200000000 1.0   3.52
Fe     4 -0.1507080000000  0.2168810000000  0.4936200000000 1.0   3.52
END
