TITL LFSO-LiFe3S2O3-200909-184001-8693d0 0.0224 129.511522 -4.71260140E+003 -0.309459 4.65509 9 (P-1) n - 1
REM
REM Run started: Thu, 10 Sep 2020 00:15:18 +0100 in /lustre/scratch/uccabz1/launch_tmp/launcher_2020-09-09-17-40-00-194675
REM CASTEP 20.1 from code version af48c487+ pr-geom-scf-spinfix Tue Jun 2 15:39:59 2020 +0100
REM Functional Perdew Burke Ernzerhof Relativity Koelling-Harmon Dispersion off
REM Cut-off 340.0000 eV Grid scale 1.7500 Gmax 16.5316 1/A FBSC none
REM MP grid 6 3 2 Offset 0.000 0.000 0.000 No. kpts 18 Spacing 0.07
REM Total runtime: 20650.5 s
REM Overall efficiency: 96.4 %
REM
REM
REM
REM compiler GCC version 4.9.2
REM options -cpp -iprefix /lustre/shared/ucl/apps/gcc/4.9.2/bin/../lib/gcc/x86_64-unknown-linux-gnu/4.9.2/ -mtune=corei7 -march=x86-64 -g -Og
REM COMMAND_LINE
REM seed -2126252044 -527169871 -1103342728 -426706157 608832256 -153322019 -280194370 1418920408 -419203338 -2071483103 -1883984490 327327000
REM
REM S 3|1.8|5|6|7|30:31:32(qc=5)
REM O 2|1.5|12|13|15|20:21(qc=5)
REM Li 1|1.3|8|9|10|10U:20(qc=5)
REM Fe 3|2.2|2.0|1.0|8|9|10|40:41:32(qc=5)
REM 
CELL 1.54180    3.49830    5.10974    9.34691   74.54311   54.77245   89.09376
LATT -1
SFAC Li O  S  Fe 
Li     1  0.5000000000000  0.5000000000000  0.5000000000000 1.0   0.02
O      2  0.2104870000000 -0.2523820000000  0.3654660000000 1.0   0.09
O      2 -0.2104870000000  0.2523820000000 -0.3654660000000 1.0   0.09
O      2 -0.5000000000000  0.0000000000000 -0.5000000000000 1.0  -0.21
S      3  0.1156840000000  0.2219010000000  0.0853360000000 1.0  -0.07
S      3 -0.1156840000000 -0.2219010000000 -0.0853360000000 1.0  -0.07
Fe     4 -0.4499610000000 -0.0427060000000  0.1318980000000 1.0   0.98
Fe     4  0.4499610000000  0.0427060000000 -0.1318980000000 1.0   0.98
Fe     4  0.0000000000000  0.0000000000000  0.5000000000000 1.0  -2.12
END
