TITL LFSO-LiFeSO-200909-034025-4cd20c 0.0406 524.943886 -1.08296657E+004 20.7638 21.0501 24 (C222) n - 1
REM
REM Run started: Wed, 09 Sep 2020 20:35:52 +0100 in /lustre/scratch/uccabz1/launch_tmp/launcher_2020-09-09-13-37-59-868007
REM CASTEP 20.1 from code version af48c487+ pr-geom-scf-spinfix Tue Jun 2 15:39:59 2020 +0100
REM Functional Perdew Burke Ernzerhof Relativity Koelling-Harmon Dispersion off
REM Cut-off 340.0000 eV Grid scale 1.7500 Gmax 16.5316 1/A FBSC none
REM MP grid 3 3 2 Offset 0.000 0.000 0.000 No. kpts 4 Spacing 0.07
REM Total runtime: 64273.9 s
REM Overall efficiency: 98.2727 %
REM
REM
REM
REM compiler GCC version 4.9.2
REM options -cpp -iprefix /lustre/shared/ucl/apps/gcc/4.9.2/bin/../lib/gcc/x86_64-unknown-linux-gnu/4.9.2/ -mtune=corei7 -march=x86-64 -g -Og
REM COMMAND_LINE
REM seed 950664884 2057306625 -931519355 -2004590769 884039438 1576542138 558959263 1742805227 -1068603928 -1022103926 -182895144 2008129448
REM
REM S 3|1.8|5|6|7|30:31:32(qc=5)
REM O 2|1.5|12|13|15|20:21(qc=5)
REM Li 1|1.3|8|9|10|10U:20(qc=5)
REM Fe 3|2.2|2.0|1.0|8|9|10|40:41:32(qc=5)
REM 
CELL 1.54180    6.62899    6.62899   12.00477   90.00000   90.00000   95.67786
LATT -1
SFAC Li O  S  Fe 
Li     1  0.2869090000000  0.0095400000000 -0.0094900000000 1.0   0.04
Li     1 -0.2869090000000 -0.0095400000000 -0.0094900000000 1.0   0.04
Li     1 -0.0095400000000 -0.2869090000000  0.0094900000000 1.0   0.04
Li     1  0.0095400000000  0.2869090000000  0.0094900000000 1.0   0.04
Li     1  0.2568850000000 -0.2568850000000  0.5000000000000 1.0   0.06
Li     1 -0.2568850000000  0.2568850000000 -0.5000000000000 1.0   0.06
O      2 -0.6160460000000 -0.1650380000000 -0.1262910000000 1.0   0.27
O      2  0.6160460000000  0.1650380000000 -0.1262910000000 1.0   0.27
O      2  0.1650380000000  0.6160460000000  0.1262910000000 1.0   0.27
O      2 -0.1650380000000 -0.6160460000000  0.1262910000000 1.0   0.27
O      2  0.0000000000000  0.0000000000000 -0.1092430000000 1.0   0.42
O      2  0.0000000000000  0.0000000000000  0.1092430000000 1.0   0.42
S      3  0.2545260000000 -0.0069830000000 -0.3588420000000 1.0   0.24
S      3 -0.2545260000000  0.0069830000000 -0.3588420000000 1.0   0.24
S      3  0.0069830000000 -0.2545260000000  0.3588420000000 1.0   0.24
S      3 -0.0069830000000  0.2545260000000  0.3588420000000 1.0   0.24
S      3  0.5000000000000  0.0000000000000  0.1671710000000 1.0   0.28
S      3  0.0000000000000 -0.5000000000000 -0.1671710000000 1.0   0.28
Fe     4  0.1391650000000 -0.1783580000000 -0.2054680000000 1.0   3.42
Fe     4 -0.1391650000000  0.1783580000000 -0.2054680000000 1.0   3.42
Fe     4  0.1783580000000 -0.1391650000000  0.2054680000000 1.0   3.42
Fe     4 -0.1783580000000  0.1391650000000  0.2054680000000 1.0   3.42
Fe     4 -0.5000000000000  0.0000000000000 -0.2343380000000 1.0   1.68
Fe     4  0.0000000000000  0.5000000000000  0.2343380000000 1.0   1.68
END
