TITL LFSO-Li3Fe3SO5-201002-004351-6283bb -0.0192 149.196515 -5.68286628E+003 -10.9927 11.0554 12 (C2) n - 1
REM
REM Run started: Fri, 02 Oct 2020 04:51:16 +0100 in /lustre/scratch/uccabz1/launch_tmp/launcher_2020-10-01-23-43-49-504992
REM CASTEP 20.1 from code version af48c487+ pr-geom-scf-spinfix Tue Jun 2 15:39:59 2020 +0100
REM Functional Perdew Burke Ernzerhof Relativity Koelling-Harmon Dispersion off
REM Cut-off 340.0000 eV Grid scale 1.7500 Gmax 16.5316 1/A FBSC none
REM MP grid 4 4 4 Offset 0.000 0.000 0.000 No. kpts 20 Spacing 0.07
REM Total runtime: 16468.4 s
REM Overall efficiency: 79.4615 %
REM
REM
REM
REM compiler GCC version 4.9.2
REM options -cpp -iprefix /lustre/shared/ucl/apps/gcc/4.9.2/bin/../lib/gcc/x86_64-unknown-linux-gnu/4.9.2/ -mtune=corei7 -march=x86-64 -g -Og
REM COMMAND_LINE
REM seed 1783625150 2124040066 1977888384 130447306 -875783258 -1541674226 -1457543919 139221644 2066059662 1823343415 -1375637436 -1092497711
REM
REM S 3|1.8|5|6|7|30:31:32(qc=5)
REM O 2|1.5|12|13|15|20:21(qc=5)
REM Li 1|1.3|8|9|10|10U:20(qc=5)
REM Fe 3|2.2|2.0|1.0|8|9|10|40:41:32(qc=5)
REM 
CELL 1.54180    5.99126    5.99126    5.74829  106.96129  106.96129  118.38723
LATT -1
SFAC Li O  S  Fe 
Li     1 -0.3126380000000 -0.2272020000000  0.6290880000000 1.0   0.02
Li     1  0.2272020000000  0.3126380000000 -0.6290880000000 1.0   0.02
Li     1 -0.2640370000000  0.2640370000000  0.0000000000000 1.0   0.03
O      2  0.4998580000000  0.5058730000000  0.2291540000000 1.0  -0.20
O      2 -0.5058730000000 -0.4998580000000 -0.2291540000000 1.0  -0.20
O      2 -0.1658450000000  0.1602570000000  0.2517200000000 1.0  -0.43
O      2 -0.1602570000000  0.1658450000000 -0.2517200000000 1.0  -0.43
O      2  0.0691650000000 -0.0691650000000  0.5000000000000 1.0  -0.27
S      3  0.1310870000000 -0.1310870000000  0.0000000000000 1.0  -0.16
Fe     4 -0.2216520000000 -0.2251120000000  0.1551120000000 1.0  -2.76
Fe     4  0.2251120000000  0.2216520000000 -0.1551120000000 1.0  -2.76
Fe     4 -0.2768420000000  0.2768420000000 -0.5000000000000 1.0  -3.87
END
