TITL LFSO-Li4Fe2S2O3-200911-083021-b92d3d -0.0380 268.684711 -8.89764528E+003 12.0098 12.7145 22 (P21212) n - 1
REM
REM Run started: Fri, 11 Sep 2020 09:56:38 +0100 in /lustre/scratch/uccabz1/launch_tmp/launcher_2020-09-11-07-30-19-534895
REM CASTEP 20.1 from code version af48c487+ pr-geom-scf-spinfix Tue Jun 2 15:39:59 2020 +0100
REM Functional Perdew Burke Ernzerhof Relativity Koelling-Harmon Dispersion off
REM Cut-off 340.0000 eV Grid scale 1.7500 Gmax 16.5316 1/A FBSC none
REM MP grid 3 3 3 Offset 0.000 0.000 0.000 No. kpts 8 Spacing 0.07
REM Total runtime: 6966.28 s
REM Overall efficiency: 97.3333 %
REM
REM
REM
REM compiler GCC version 4.9.2
REM options -cpp -iprefix /lustre/shared/ucl/apps/gcc/4.9.2/bin/../lib/gcc/x86_64-unknown-linux-gnu/4.9.2/ -mtune=corei7 -march=x86-64 -g -Og
REM COMMAND_LINE
REM seed 1081307905 993443366 112773938 638266323 -1173659140 340256480 -1448699737 -837785090 -1135120772 1948949311 -2105864430 189038005
REM
REM S 3|1.8|5|6|7|30:31:32(qc=5)
REM O 2|1.5|12|13|15|20:21(qc=5)
REM Li 1|1.3|8|9|10|10U:20(qc=5)
REM Fe 3|2.2|2.0|1.0|8|9|10|40:41:32(qc=5)
REM 
CELL 1.54180    6.52466    6.88192    5.98377   90.00000   90.00000   90.00000
LATT -1
SFAC Li O  S  Fe 
Li     1  0.4262650000000  0.2376040000000  0.1726960000000 1.0  -0.02
Li     1 -0.4262650000000  0.2376040000000 -0.1726960000000 1.0  -0.02
Li     1 -0.0737350000000 -0.2376040000000  0.3273040000000 1.0  -0.02
Li     1  0.0737350000000 -0.2376040000000 -0.3273040000000 1.0  -0.02
Li     1 -0.1242610000000  0.4579310000000 -0.1409340000000 1.0  -0.02
Li     1  0.1242610000000  0.4579310000000  0.1409340000000 1.0  -0.02
Li     1  0.3757390000000 -0.4579310000000 -0.3590660000000 1.0  -0.02
Li     1 -0.3757390000000 -0.4579310000000  0.3590660000000 1.0  -0.02
O      2  0.2135600000000 -0.3510980000000  0.3748050000000 1.0   0.24
O      2 -0.2135600000000 -0.3510980000000 -0.3748050000000 1.0   0.24
O      2 -0.2864400000000  0.3510980000000  0.1251950000000 1.0   0.24
O      2  0.2864400000000  0.3510980000000 -0.1251950000000 1.0   0.24
O      2  0.0000000000000 -0.2935340000000 -0.0000000000000 1.0   0.08
O      2  0.5000000000000  0.2935340000000 -0.5000000000000 1.0   0.08
S      3  0.0965930000000  0.1065200000000  0.2886220000000 1.0  -0.02
S      3 -0.0965930000000  0.1065200000000 -0.2886220000000 1.0  -0.02
S      3 -0.4034070000000 -0.1065200000000  0.2113780000000 1.0  -0.02
S      3  0.4034070000000 -0.1065200000000 -0.2113780000000 1.0  -0.02
Fe     4 -0.2446050000000  0.1892440000000  0.3648130000000 1.0   2.77
Fe     4  0.2446050000000  0.1892440000000 -0.3648130000000 1.0   2.77
Fe     4  0.2553950000000 -0.1892440000000  0.1351870000000 1.0   2.77
Fe     4 -0.2553950000000 -0.1892440000000 -0.1351870000000 1.0   2.77
END
