TITL LFSO-Li2Fe2S2O-200913-130600-5c0d8a -0.1977 275.361118 -6.34500465E+003 8.00457 8.96718 14 (Cmcm) n - 1
REM
REM Run started: Sun, 13 Sep 2020 20:13:37 +0100 in /lustre/scratch/uccabz1/launch_tmp/launcher_2020-09-13-12-05-58-555875
REM CASTEP 20.1 from code version af48c487+ pr-geom-scf-spinfix Tue Jun 2 15:39:59 2020 +0100
REM Functional Perdew Burke Ernzerhof Relativity Koelling-Harmon Dispersion off
REM Cut-off 340.0000 eV Grid scale 1.7500 Gmax 16.5316 1/A FBSC none
REM MP grid 4 3 2 Offset 0.000 0.000 0.000 No. kpts 6 Spacing 0.07
REM Total runtime: 29859.7 s
REM Overall efficiency: 97.75 %
REM
REM
REM
REM compiler GCC version 4.9.2
REM options -cpp -iprefix /lustre/shared/ucl/apps/gcc/4.9.2/bin/../lib/gcc/x86_64-unknown-linux-gnu/4.9.2/ -mtune=corei7 -march=x86-64 -g -Og
REM COMMAND_LINE
REM seed -1265575964 -710291849 1164714577 -184667409 928760635 2066079171 1690333466 -1130074913 -997141503 -1947115777 369322000 1269758994
REM
REM S 3|1.8|5|6|7|30:31:32(qc=5)
REM O 2|1.5|12|13|15|20:21(qc=5)
REM Li 1|1.3|8|9|10|10U:20(qc=5)
REM Fe 3|2.2|2.0|1.0|8|9|10|40:41:32(qc=5)
REM 
CELL 1.54180    5.13036    6.12774    9.64475   90.00000   90.00000  114.74737
LATT -1
SFAC Li O  S  Fe 
Li     1  0.0177080000000  0.4255920000000 -0.1032710000000 1.0   0.00
Li     1  0.5921160000000 -0.4255920000000  0.1032710000000 1.0   0.00
Li     1  0.5921160000000 -0.4255920000000  0.3967290000000 1.0   0.00
Li     1  0.0177080000000  0.4255920000000 -0.3967290000000 1.0   0.00
O      2 -0.5172880000000  0.3377440000000  0.2500000000000 1.0   0.10
O      2 -0.8550320000000 -0.3377450000000 -0.2500000000000 1.0   0.10
S      3  0.4557460000000  0.2856530000000 -0.4197420000000 1.0   0.02
S      3  0.1700930000000 -0.2856530000000  0.4197420000000 1.0   0.02
S      3  0.1700930000000 -0.2856530000000  0.0802580000000 1.0   0.02
S      3  0.4557460000000  0.2856530000000 -0.0802580000000 1.0   0.02
Fe     4  0.2676340000000 -0.0938440000000 -0.3794040000000 1.0   1.93
Fe     4  0.3614790000000  0.0938440000000  0.3794040000000 1.0   1.93
Fe     4  0.3614790000000  0.0938440000000  0.1205960000000 1.0   1.93
Fe     4  0.2676340000000 -0.0938440000000 -0.1205960000000 1.0   1.93
END
