TITL LFSO-Li2Fe3SO3-200912-144315-86e13b 0.0228 119.571775 -4.60515912E+003 10.1958 10.4037 9 (Pmm2) n - 1
REM
REM Run started: Sat, 12 Sep 2020 18:37:20 +0100 in /lustre/scratch/uccabz1/launch_tmp/launcher_2020-09-12-13-43-14-041790
REM CASTEP 20.1 from code version af48c487+ pr-geom-scf-spinfix Tue Jun 2 15:39:59 2020 +0100
REM Functional Perdew Burke Ernzerhof Relativity Koelling-Harmon Dispersion off
REM Cut-off 340.0000 eV Grid scale 1.7500 Gmax 16.5316 1/A FBSC none
REM MP grid 6 3 2 Offset 0.000 0.000 0.000 No. kpts 12 Spacing 0.07
REM Total runtime: 14079.8 s
REM Overall efficiency: 89.8 %
REM
REM
REM
REM compiler GCC version 4.9.2
REM options -cpp -iprefix /lustre/shared/ucl/apps/gcc/4.9.2/bin/../lib/gcc/x86_64-unknown-linux-gnu/4.9.2/ -mtune=corei7 -march=x86-64 -g -Og
REM COMMAND_LINE
REM seed -288419693 1033151637 48720935 1000476565 -1301004589 55440375 -2085422665 -28101556 571040912 1641118577 2102906954 -1185439158
REM
REM S 3|1.8|5|6|7|30:31:32(qc=5)
REM O 2|1.5|12|13|15|20:21(qc=5)
REM Li 1|1.3|8|9|10|10U:20(qc=5)
REM Fe 3|2.2|2.0|1.0|8|9|10|40:41:32(qc=5)
REM 
CELL 1.54180    2.63250    5.38848    8.42935   90.00000   89.97874   90.00000
LATT -1
SFAC Li O  S  Fe 
Li     1 -0.0492030000000  0.2428230000000 -0.2715510000000 1.0  -0.00
Li     1 -0.0492030000000 -0.2428230000000 -0.2715510000000 1.0  -0.00
O      2 -0.5537700000000  0.2709760000000 -0.4373440000000 1.0   0.21
O      2 -0.5537700000000 -0.2709760000000 -0.4373440000000 1.0   0.21
O      2  0.9541800000000 -0.5000000000000  0.2581600000000 1.0   0.35
S      3 -0.5474770000000 -0.5000000000000 -0.0745040000000 1.0   0.16
Fe     4  0.4568670000000  0.2311650000000  0.1655290000000 1.0   3.33
Fe     4  0.4568670000000 -0.2311650000000  0.1655290000000 1.0   3.33
Fe     4 -0.0558060000000 -0.5000000000000 -0.5032550000000 1.0   2.63
END
