TITL LFSO-Li2Fe4SO4-200912-003609-3f8470 -0.0315 132.632020 -5.90798625E+003 11.4553 12.2705 11 (P4) n - 1
REM
REM Run started: Sat, 12 Sep 2020 01:17:37 +0100 in /lustre/scratch/uccabz1/launch_tmp/launcher_2020-09-11-23-36-06-908452
REM CASTEP 20.1 from code version af48c487+ pr-geom-scf-spinfix Tue Jun 2 15:39:59 2020 +0100
REM Functional Perdew Burke Ernzerhof Relativity Koelling-Harmon Dispersion off
REM Cut-off 340.0000 eV Grid scale 1.7500 Gmax 16.5316 1/A FBSC none
REM MP grid 4 3 3 Offset 0.000 0.000 0.000 No. kpts 6 Spacing 0.07
REM Total runtime: 2619.57 s
REM Overall efficiency: 92.5714 %
REM
REM
REM
REM compiler GCC version 4.9.2
REM options -cpp -iprefix /lustre/shared/ucl/apps/gcc/4.9.2/bin/../lib/gcc/x86_64-unknown-linux-gnu/4.9.2/ -mtune=corei7 -march=x86-64 -g -Og
REM COMMAND_LINE
REM seed -473461707 1336700046 167066915 -1371698327 -447884558 -707431022 -1586254095 1992922789 1992109034 237665904 908968621 -769249462
REM
REM S 3|1.8|5|6|7|30:31:32(qc=5)
REM O 2|1.5|12|13|15|20:21(qc=5)
REM Li 1|1.3|8|9|10|10U:20(qc=5)
REM Fe 3|2.2|2.0|1.0|8|9|10|40:41:32(qc=5)
REM 
CELL 1.54180    3.59677    6.07250    6.07250   90.00000   90.00000   90.00000
LATT -1
SFAC Li O  S  Fe 
Li     1  0.1274830000000  0.5000000000000  0.0000000000000 1.0  -0.15
Li     1  0.1274830000000  0.0000000000000 -0.5000000000000 1.0  -0.15
O      2  0.1362820000000 -0.2406960000000 -0.2031340000000 1.0   0.32
O      2  0.1362820000000  0.2406960000000  0.2031340000000 1.0   0.32
O      2  0.1362820000000  0.2031340000000 -0.2406960000000 1.0   0.32
O      2  0.1362820000000 -0.2031340000000  0.2406960000000 1.0   0.32
S      3 -0.3543900000000  0.5000000000000 -0.5000000000000 1.0  -0.07
Fe     4 -0.3654690000000 -0.2371560000000 -0.2099000000000 1.0   2.64
Fe     4 -0.3654690000000  0.2371560000000  0.2099000000000 1.0   2.64
Fe     4 -0.3654690000000  0.2099000000000 -0.2371560000000 1.0   2.64
Fe     4 -0.3654690000000 -0.2099000000000  0.2371560000000 1.0   2.64
END
