TITL LFSO-Li6FeS2O2-200920-201915-10d1e6 0.7413 348.152423 -7.09086630E+003 0.115293 7.77100 22 (P3) n - 1
REM
REM Run started: Mon, 21 Sep 2020 15:29:57 +0100 in /lustre/scratch/uccabz1/launch_tmp/launcher_2020-09-21-14-11-11-840528
REM CASTEP 20.1 from code version af48c487+ pr-geom-scf-spinfix Tue Jun 2 15:39:59 2020 +0100
REM Functional Perdew Burke Ernzerhof Relativity Koelling-Harmon Dispersion off
REM Cut-off 340.0000 eV Grid scale 1.7500 Gmax 16.5316 1/A FBSC none
REM MP grid 2 3 3 Offset 0.000 0.000 0.000 No. kpts 5 Spacing 0.07
REM Total runtime: 51228.7 s
REM Overall efficiency: 76.8 %
REM
REM
REM
REM compiler GCC version 4.9.2
REM options -cpp -iprefix /lustre/shared/ucl/apps/gcc/4.9.2/bin/../lib/gcc/x86_64-unknown-linux-gnu/4.9.2/ -mtune=corei7 -march=x86-64 -g -Og
REM COMMAND_LINE
REM seed -1414616690 676095454 -1339740376 1299033708 790029702 1041575905 -1027157669 911706943 1452083025 -136920485 -370504443 1190579361
REM
REM S 3|1.8|5|6|7|30:31:32(qc=5)
REM O 2|1.5|12|13|15|20:21(qc=5)
REM Li 1|1.3|8|9|10|10U:20(qc=5)
REM Fe 3|2.2|2.0|1.0|8|9|10|40:41:32(qc=5)
REM 
CELL 1.54180    8.58554    6.84283    6.84283  120.00000   90.00000   90.00000
LATT -1
SFAC Li O  S  Fe 
Li     1  0.1719660000000 -0.3762300000000 -0.0507910000000 1.0  -0.04
Li     1  0.1719660000000  0.3254400000000  0.3762300000000 1.0  -0.04
Li     1  0.1719660000000  0.0507910000000 -0.3254400000000 1.0  -0.04
Li     1 -0.2002530000000 -0.2245230000000 -0.4223260000000 1.0  -0.08
Li     1 -0.2002530000000 -0.1978020000000  0.2245230000000 1.0  -0.08
Li     1 -0.2002530000000  0.4223260000000  0.1978020000000 1.0  -0.08
Li     1 -0.1576490000000  0.2270590000000 -0.2180800000000 1.0  -0.01
Li     1 -0.1576490000000 -0.4451380000000 -0.2270590000000 1.0  -0.01
Li     1 -0.1576490000000  0.2180800000000  0.4451380000000 1.0  -0.01
Li     1  0.5282080000000  0.4930510000000 -0.4364070000000 1.0   0.02
Li     1  0.5282080000000  0.0705440000000 -0.4930510000000 1.0   0.02
Li     1  0.5282080000000  0.4364070000000 -0.0705440000000 1.0   0.02
O      2 -0.0806760000000  0.4854090000000  0.4521770000000 1.0   0.15
O      2 -0.0806760000000 -0.0332310000000 -0.4854090000000 1.0   0.15
O      2 -0.0806760000000 -0.4521770000000  0.0332310000000 1.0   0.15
O      2 -0.3396310000000  0.3333340000000 -0.3333340000000 1.0  -0.00
S      3  0.2728660000000 -0.0272640000000  0.3023490000000 1.0  -0.19
S      3  0.2728660000000  0.3296140000000  0.0272640000000 1.0  -0.19
S      3  0.2728660000000 -0.3023490000000 -0.3296140000000 1.0  -0.19
S      3 -0.4199100000000 -0.3333330000000  0.3333330000000 1.0  -0.09
Fe     4  0.0357270000000 -0.3333330000000  0.3333330000000 1.0   3.58
Fe     4  0.3147630000000 -0.3333330000000  0.3333330000000 1.0  -2.92
END
