TITL LFSO-Li6FeS2O2-200920-213402-bf867b 0.0427 169.806681 -3.54144740E+003 3.92332 4.04813 11 (C2/m) n - 1
REM
REM Run started: Mon, 21 Sep 2020 03:36:18 +0100 in /lustre/scratch/uccabz1/launch_tmp/launcher_2020-09-20-20-34-00-845974
REM CASTEP 20.1 from code version af48c487+ pr-geom-scf-spinfix Tue Jun 2 15:39:59 2020 +0100
REM Functional Perdew Burke Ernzerhof Relativity Koelling-Harmon Dispersion off
REM Cut-off 340.0000 eV Grid scale 1.7500 Gmax 16.5316 1/A FBSC none
REM MP grid 4 3 3 Offset 0.000 0.000 0.000 No. kpts 12 Spacing 0.07
REM Total runtime: 22679.3 s
REM Overall efficiency: 90.6923 %
REM
REM
REM
REM compiler GCC version 4.9.2
REM options -cpp -iprefix /lustre/shared/ucl/apps/gcc/4.9.2/bin/../lib/gcc/x86_64-unknown-linux-gnu/4.9.2/ -mtune=corei7 -march=x86-64 -g -Og
REM COMMAND_LINE
REM seed -822833037 -1521578845 -188391435 1411765281 1480672990 1685569080 -2138036554 -296919120 -1822675443 -1339645733 499305315 1201990244
REM
REM S 3|1.8|5|6|7|30:31:32(qc=5)
REM O 2|1.5|12|13|15|20:21(qc=5)
REM Li 1|1.3|8|9|10|10U:20(qc=5)
REM Fe 3|2.2|2.0|1.0|8|9|10|40:41:32(qc=5)
REM 
CELL 1.54180    3.73484    8.19213    8.19213   42.64873   90.52880   90.52880
LATT -1
SFAC Li O  S  Fe 
Li     1  0.4275570000000 -0.4029770000000  0.1358820000000 1.0  -0.05
Li     1 -0.4275570000000 -0.1358820000000  0.4029770000000 1.0  -0.05
Li     1 -0.4275570000000  0.4029770000000 -0.1358820000000 1.0  -0.05
Li     1  0.4275570000000  0.1358820000000 -0.4029770000000 1.0  -0.05
Li     1 -0.2222980000000 -0.2387810000000 -0.2387810000000 1.0   0.00
Li     1  0.2222980000000  0.2387810000000  0.2387810000000 1.0   0.00
O      2 -0.5000000000000  0.0000000000000  0.5000000000000 1.0   0.11
O      2 -0.5000000000000  0.5000000000000  0.0000000000000 1.0   0.11
S      3  0.0571610000000 -0.4316860000000 -0.4316860000000 1.0   0.05
S      3 -0.0571610000000  0.4316860000000  0.4316860000000 1.0   0.05
Fe     4  0.0000000000000  0.0000000000000  0.0000000000000 1.0   3.79
END
