TITL LFSO-Li4Fe2SO3-200910-235650-6f43e6 0.0311 133.960059 -4.14320375E+003 -0.950071E-05 0.132930E-03 10 (C2) n - 1
REM
REM Run started: Fri, 11 Sep 2020 00:58:12 +0100 in /lustre/scratch/uccabz1/launch_tmp/launcher_2020-09-10-22-56-49-096802
REM CASTEP 20.1 from code version af48c487+ pr-geom-scf-spinfix Tue Jun 2 15:39:59 2020 +0100
REM Functional Perdew Burke Ernzerhof Relativity Koelling-Harmon Dispersion off
REM Cut-off 340.0000 eV Grid scale 1.7500 Gmax 16.5316 1/A FBSC none
REM MP grid 5 3 4 Offset 0.000 0.000 0.000 No. kpts 26 Spacing 0.07
REM Total runtime: 3747.56 s
REM Overall efficiency: 93.8571 %
REM
REM
REM
REM compiler GCC version 4.9.2
REM options -cpp -iprefix /lustre/shared/ucl/apps/gcc/4.9.2/bin/../lib/gcc/x86_64-unknown-linux-gnu/4.9.2/ -mtune=corei7 -march=x86-64 -g -Og
REM COMMAND_LINE
REM seed 1863020455 1035971607 -2002202477 -1440564750 1036178123 798607460 -249417155 -242838518 1519357280 -714719204 1898100187 -281504695
REM
REM S 3|1.8|5|6|7|30:31:32(qc=5)
REM O 2|1.5|12|13|15|20:21(qc=5)
REM Li 1|1.3|8|9|10|10U:20(qc=5)
REM Fe 3|2.2|2.0|1.0|8|9|10|40:41:32(qc=5)
REM 
CELL 1.54180    3.31999    9.43472    6.37642   42.28438   93.35179   94.53273
LATT -1
SFAC Li O  S  Fe 
Li     1 -0.1362960000000  0.0138770000000 -0.2646070000000 1.0
Li     1  0.1362960000000  0.2507300000000 -0.2646070000000 1.0
Li     1  0.4177020000000  0.2386510000000  0.2355260000000 1.0
Li     1 -0.4177020000000 -0.4741780000000  0.2355260000000 1.0
O      2 -0.0866930000000  0.1585190000000  0.1431670000000 1.0
O      2  0.0866930000000 -0.3016860000000  0.1431670000000 1.0
O      2 -0.5000000000000  0.2246770000000 -0.4493530000000 1.0
S      3  0.5000000000000 -0.3669260000000 -0.2661490000000 1.0
Fe     4 -0.1886220000000 -0.0930230000000  0.3323810000000 1.0
Fe     4  0.1886220000000 -0.2393580000000  0.3323810000000 1.0
END
