TITL LFSO-Li2Fe4SO4-200912-005921-0913b8 0.0070 147.147534 -5.90895033E+003 9.82810 10.1906 11 (P2) n - 1
REM
REM Run started: Sat, 12 Sep 2020 02:33:23 +0100 in /lustre/scratch/uccabz1/launch_tmp/launcher_2020-09-11-23-59-18-530367
REM CASTEP 20.1 from code version af48c487+ pr-geom-scf-spinfix Tue Jun 2 15:39:59 2020 +0100
REM Functional Perdew Burke Ernzerhof Relativity Koelling-Harmon Dispersion off
REM Cut-off 340.0000 eV Grid scale 1.7500 Gmax 16.5316 1/A FBSC none
REM MP grid 5 3 2 Offset 0.000 0.000 0.000 No. kpts 8 Spacing 0.07
REM Total runtime: 6136.57 s
REM Overall efficiency: 95.2222 %
REM
REM
REM
REM compiler GCC version 4.9.2
REM options -cpp -iprefix /lustre/shared/ucl/apps/gcc/4.9.2/bin/../lib/gcc/x86_64-unknown-linux-gnu/4.9.2/ -mtune=corei7 -march=x86-64 -g -Og
REM COMMAND_LINE
REM seed -1765525731 -1392146578 1437499648 1035617549 -2074306871 1133967945 -1211176711 1010262676 -308092525 1012696911 -57379 -283334391
REM
REM S 3|1.8|5|6|7|30:31:32(qc=5)
REM O 2|1.5|12|13|15|20:21(qc=5)
REM Li 1|1.3|8|9|10|10U:20(qc=5)
REM Fe 3|2.2|2.0|1.0|8|9|10|40:41:32(qc=5)
REM 
CELL 1.54180    3.55680    5.92650    7.35092   90.00000   90.00000  108.26275
LATT -1
SFAC Li O  S  Fe 
Li     1 -0.3363140000000  0.3256870000000 -0.1043580000000 1.0  -0.02
Li     1  0.3363140000000 -0.3256870000000 -0.1043580000000 1.0  -0.02
O      2  0.1477320000000  0.2983290000000 -0.0147120000000 1.0   0.26
O      2 -0.1477320000000 -0.2983290000000 -0.0147120000000 1.0   0.26
O      2  0.3298390000000 -0.3401950000000 -0.3700320000000 1.0   0.08
O      2 -0.3298390000000  0.3401950000000 -0.3700320000000 1.0   0.08
S      3  0.0000000000000  0.0000000000000  0.3918770000000 1.0   0.09
Fe     4  0.1726330000000  0.3440620000000  0.2166530000000 1.0   2.55
Fe     4 -0.1726330000000 -0.3440620000000  0.2166530000000 1.0   2.55
Fe     4  0.1632290000000  0.3260230000000 -0.4418980000000 1.0   2.00
Fe     4 -0.1632290000000 -0.3260230000000 -0.4418980000000 1.0   2.00
END
