TITL LFSO-Li4FeS2O-200910-120113-98ffa2 -0.0039 146.661506 -2.70843097E+003 3.79304 3.94815 8 (P2) n - 1
REM
REM Run started: Thu, 10 Sep 2020 12:43:31 +0100 in /lustre/scratch/uccabz1/launch_tmp/launcher_2020-09-10-11-01-10-563095
REM CASTEP 20.1 from code version af48c487+ pr-geom-scf-spinfix Tue Jun 2 15:39:59 2020 +0100
REM Functional Perdew Burke Ernzerhof Relativity Koelling-Harmon Dispersion off
REM Cut-off 340.0000 eV Grid scale 1.7500 Gmax 16.5316 1/A FBSC none
REM MP grid 4 4 2 Offset 0.000 0.000 0.000 No. kpts 8 Spacing 0.07
REM Total runtime: 2764.18 s
REM Overall efficiency: 90.875 %
REM
REM
REM
REM compiler GCC version 4.9.2
REM options -cpp -iprefix /lustre/shared/ucl/apps/gcc/4.9.2/bin/../lib/gcc/x86_64-unknown-linux-gnu/4.9.2/ -mtune=corei7 -march=x86-64 -g -Og
REM COMMAND_LINE
REM seed -796341098 -814477767 1933982705 1537795482 514779281 -731678701 496454910 -450256180 317548098 1219695976 -1588320681 -487734952
REM
REM S 3|1.8|5|6|7|30:31:32(qc=5)
REM O 2|1.5|12|13|15|20:21(qc=5)
REM Li 1|1.3|8|9|10|10U:20(qc=5)
REM Fe 3|2.2|2.0|1.0|8|9|10|40:41:32(qc=5)
REM 
CELL 1.54180    4.55722    4.00514    9.66102   90.00000   56.27549   90.00000
LATT -1
SFAC Li O  S  Fe 
Li     1 -0.3627170000000 -0.1353120000000  0.1086600000000 1.0   0.01
Li     1  0.3627170000000 -0.1353120000000 -0.1086600000000 1.0   0.01
Li     1 -0.0426980000000  0.3877050000000  0.3222690000000 1.0  -0.06
Li     1  0.0426980000000  0.3877050000000 -0.3222690000000 1.0  -0.06
O      2 -0.5000000000000 -0.6137600000000 -0.5000000000000 1.0   0.23
S      3  0.0321540000000 -0.1129860000000  0.1967510000000 1.0   0.08
S      3 -0.0321540000000 -0.1129860000000 -0.1967510000000 1.0   0.08
Fe     4  0.5000000000000 -0.1131810000000  0.5000000000000 1.0   3.50
END
