TITL LFSO-Li2Fe3SO3-200912-153013-e368b4 -0.0228 212.282197 -9.20990735E+003 0.816131E-02 0.272565E-01 18 (Pmmm) n - 1
REM
REM Run started: Sat, 12 Sep 2020 20:15:43 +0100 in /lustre/scratch/uccabz1/launch_tmp/launcher_2020-09-12-14-30-11-050722
REM CASTEP 20.1 from code version af48c487+ pr-geom-scf-spinfix Tue Jun 2 15:39:59 2020 +0100
REM Functional Perdew Burke Ernzerhof Relativity Koelling-Harmon Dispersion off
REM Cut-off 340.0000 eV Grid scale 1.7500 Gmax 16.5316 1/A FBSC none
REM MP grid 6 3 2 Offset 0.000 0.000 0.000 No. kpts 6 Spacing 0.07
REM Total runtime: 17244.9 s
REM Overall efficiency: 95 %
REM
REM
REM
REM compiler GCC version 4.9.2
REM options -cpp -iprefix /lustre/shared/ucl/apps/gcc/4.9.2/bin/../lib/gcc/x86_64-unknown-linux-gnu/4.9.2/ -mtune=corei7 -march=x86-64 -g -Og
REM COMMAND_LINE
REM seed -1371560828 -858035756 75437213 -702567179 -1880932478 1199421469 -2025953558 217544806 701386293 1797048581 1088348029 763565217
REM
REM S 3|1.8|5|6|7|30:31:32(qc=5)
REM O 2|1.5|12|13|15|20:21(qc=5)
REM Li 1|1.3|8|9|10|10U:20(qc=5)
REM Fe 3|2.2|2.0|1.0|8|9|10|40:41:32(qc=5)
REM 
CELL 1.54180    2.57282    6.61395   12.47509   90.00000   90.00000   90.00000
LATT -1
SFAC Li O  S  Fe 
Li     1 -0.2036830000000 -0.1849470000000 -0.3729930000000 1.0   0.00
Li     1 -0.2036830000000  0.1849470000000  0.3729930000000 1.0   0.00
Li     1 -0.2036830000000 -0.1849470000000  0.3729930000000 1.0   0.00
Li     1 -0.2036830000000  0.1849470000000 -0.3729930000000 1.0   0.00
O      2  0.2973690000000 -0.2913280000000  0.2760920000000 1.0  -0.00
O      2  0.2973690000000  0.2913280000000 -0.2760920000000 1.0  -0.00
O      2  0.2973690000000 -0.2913280000000 -0.2760920000000 1.0  -0.00
O      2  0.2973690000000  0.2913280000000  0.2760920000000 1.0  -0.00
O      2  0.2963400000000 -0.0000000000000 -0.4411320000000 1.0  -0.00
O      2  0.2963400000000 -0.0000000000000  0.4411320000000 1.0  -0.00
S      3 -0.2039290000000 -0.0000000000000 -0.1112880000000 1.0   0.00
S      3 -0.2039290000000 -0.0000000000000  0.1112880000000 1.0   0.00
Fe     4 -0.2025000000000 -0.3362290000000  0.1759420000000 1.0  -0.00
Fe     4 -0.2025000000000  0.3362290000000 -0.1759420000000 1.0  -0.00
Fe     4 -0.2025000000000 -0.3362290000000 -0.1759420000000 1.0  -0.00
Fe     4 -0.2025000000000  0.3362290000000  0.1759420000000 1.0  -0.00
Fe     4  0.3004090000000 -0.3578870000000  0.0000000000000 1.0   0.01
Fe     4  0.3004090000000  0.3578870000000  0.0000000000000 1.0   0.01
END
