TITL LFSO-Li3Fe3S4O2-200929-210628-3b982c 0.0202 227.988534 -5.28272734E+003 4.86411 11.3587 12 (C222) n - 1
REM
REM Run started: Tue, 29 Sep 2020 22:47:15 +0100 in /lustre/scratch/uccabz1/launch_tmp/launcher_2020-09-29-20-06-27-049169
REM CASTEP 20.1 from code version af48c487+ pr-geom-scf-spinfix Tue Jun 2 15:39:59 2020 +0100
REM Functional Perdew Burke Ernzerhof Relativity Koelling-Harmon Dispersion off
REM Cut-off 340.0000 eV Grid scale 1.7500 Gmax 16.5316 1/A FBSC none
REM MP grid 3 3 3 Offset 0.000 0.000 0.000 No. kpts 8 Spacing 0.07
REM Total runtime: 6841.19 s
REM Overall efficiency: 97 %
REM
REM
REM
REM compiler GCC version 4.9.2
REM options -cpp -iprefix /lustre/shared/ucl/apps/gcc/4.9.2/bin/../lib/gcc/x86_64-unknown-linux-gnu/4.9.2/ -mtune=corei7 -march=x86-64 -g -Og
REM COMMAND_LINE
REM seed -226081807 -1919335891 -519072694 -359536149 86978683 1938190727 -1092502756 -705768179 -1401229947 76389369 479543756 -647143614
REM
REM S 3|1.8|5|6|7|30:31:32(qc=5)
REM O 2|1.5|12|13|15|20:21(qc=5)
REM Li 1|1.3|8|9|10|10U:20(qc=5)
REM Fe 3|2.2|2.0|1.0|8|9|10|40:41:32(qc=5)
REM 
CELL 1.54180    7.59530    7.59530    5.67748   90.00000   90.00000  135.88555
LATT -1
SFAC Li O  S  Fe 
Li     1  0.5000000000000  0.0000000000000  0.5154710000000 1.0  -0.02
Li     1  0.0000000000000  0.5000000000000 -0.5154710000000 1.0  -0.02
Li     1  0.0000000000000  0.0000000000000  0.0000000000000 1.0   0.01
O      2 -0.5000000000000  0.0000000000000 -0.1630220000000 1.0   0.37
O      2  0.0000000000000  0.5000000000000  0.1630220000000 1.0   0.37
S      3 -0.0881790000000 -0.2943490000000 -0.2698520000000 1.0   0.07
S      3  0.0881790000000  0.2943490000000 -0.2698520000000 1.0   0.07
S      3  0.2943490000000  0.0881790000000  0.2698520000000 1.0   0.07
S      3 -0.2943490000000 -0.0881790000000  0.2698520000000 1.0   0.07
Fe     4  0.1939880000000 -0.1939880000000  0.0000000000000 1.0   3.46
Fe     4 -0.1939880000000  0.1939880000000  0.0000000000000 1.0   3.46
Fe     4  0.0000000000000  0.0000000000000  0.5000000000000 1.0  -3.07
END
