TITL LFSO-Li2Fe4S2O3-200912-125637-8d24b1 0.0440 300.770070 -1.15482215E+004 13.5295 15.4240 22 (R3) n - 1
REM
REM Run started: Sun, 13 Sep 2020 19:09:51 +0100 in /lustre/scratch/uccabz1/launch_tmp/launcher_2020-09-12-11-56-35-564901
REM CASTEP 20.1 from code version af48c487+ pr-geom-scf-spinfix Tue Jun 2 15:39:59 2020 +0100
REM Functional Perdew Burke Ernzerhof Relativity Koelling-Harmon Dispersion off
REM Cut-off 340.0000 eV Grid scale 1.7500 Gmax 16.5316 1/A FBSC none
REM MP grid 3 3 3 Offset 0.000 0.000 0.000 No. kpts 6 Spacing 0.07
REM Total runtime: 109268 s
REM Overall efficiency: 98.6 %
REM
REM
REM
REM compiler GCC version 4.9.2
REM options -cpp -iprefix /lustre/shared/ucl/apps/gcc/4.9.2/bin/../lib/gcc/x86_64-unknown-linux-gnu/4.9.2/ -mtune=corei7 -march=x86-64 -g -Og
REM COMMAND_LINE
REM seed -977128578 -292271671 1869305255 -1044521869 -1121288400 1084630348 -906187715 -634374086 743266382 -1312160216 50923650 -248729380
REM
REM S 3|1.8|5|6|7|30:31:32(qc=5)
REM O 2|1.5|12|13|15|20:21(qc=5)
REM Li 1|1.3|8|9|10|10U:20(qc=5)
REM Fe 3|2.2|2.0|1.0|8|9|10|40:41:32(qc=5)
REM 
CELL 1.54180    7.05826    7.05826    7.05826   70.11446   70.11446   70.11446
LATT -1
SFAC Li O  S  Fe 
Li     1  0.3418920000000 -0.0494890000000 -0.3828930000000 1.0  -0.01
Li     1 -0.3828930000000  0.3418920000000 -0.0494890000000 1.0  -0.01
Li     1 -0.0494890000000 -0.3828930000000  0.3418920000000 1.0  -0.01
Li     1 -0.0010120000000 -0.0010120000000 -0.0010120000000 1.0  -0.05
O      2  0.4069230000000  0.4478290000000 -0.1798470000000 1.0   0.08
O      2 -0.1798470000000  0.4069230000000  0.4478290000000 1.0   0.08
O      2  0.4478290000000 -0.1798470000000  0.4069230000000 1.0   0.08
O      2 -0.2792670000000  0.1042160000000  0.1485110000000 1.0   0.19
O      2  0.1485110000000 -0.2792670000000  0.1042160000000 1.0   0.19
O      2  0.1042160000000  0.1485110000000 -0.2792670000000 1.0   0.19
S      3 -0.4048890000000 -0.4282190000000  0.1471990000000 1.0  -0.04
S      3  0.1471990000000 -0.4048890000000 -0.4282190000000 1.0  -0.04
S      3 -0.4282190000000  0.1471990000000 -0.4048890000000 1.0  -0.04
S      3 -0.1602960000000 -0.1602960000000 -0.1602960000000 1.0  -0.03
Fe     4  0.6220550000000 -0.1088700000000  0.1423570000000 1.0   2.41
Fe     4  0.1423570000000  0.6220550000000 -0.1088700000000 1.0   2.41
Fe     4 -0.1088700000000  0.1423570000000  0.6220550000000 1.0   2.41
Fe     4  0.2462210000000  0.2817600000000 -0.2018370000000 1.0   1.94
Fe     4 -0.2018370000000  0.2462210000000  0.2817600000000 1.0   1.94
Fe     4  0.2817600000000 -0.2018370000000  0.2462210000000 1.0   1.94
Fe     4  0.1584240000000  0.1584240000000  0.1584240000000 1.0  -0.59
Fe     4 -0.5014020000000 -0.5014020000000 -0.5014020000000 1.0   0.48
END
