TITL LFSO-Li2Fe4S3O2-200912-050627-7433c6 0.2586 175.792360 -5.64233120E+003 -13.9615 14.0971 11 (P-1) n - 1
REM
REM Run started: Sat, 12 Sep 2020 10:25:25 +0100 in /lustre/scratch/uccabz1/launch_tmp/launcher_2020-09-12-09-05-54-212075
REM CASTEP 20.1 from code version af48c487+ pr-geom-scf-spinfix Tue Jun 2 15:39:59 2020 +0100
REM Functional Perdew Burke Ernzerhof Relativity Koelling-Harmon Dispersion off
REM Cut-off 340.0000 eV Grid scale 1.7500 Gmax 16.5316 1/A FBSC none
REM MP grid 3 4 3 Offset 0.000 0.000 0.000 No. kpts 18 Spacing 0.07
REM Total runtime: 18894.9 s
REM Overall efficiency: 97.2 %
REM
REM
REM
REM compiler GCC version 4.9.2
REM options -cpp -iprefix /lustre/shared/ucl/apps/gcc/4.9.2/bin/../lib/gcc/x86_64-unknown-linux-gnu/4.9.2/ -mtune=corei7 -march=x86-64 -g -Og
REM COMMAND_LINE
REM seed -1337948454 -1393218129 833901598 857545671 1918763460 1885110714 1243050647 1220875864 109438408 -1506792277 -1873739389 567864265
REM
REM S 3|1.8|5|6|7|30:31:32(qc=5)
REM O 2|1.5|12|13|15|20:21(qc=5)
REM Li 1|1.3|8|9|10|10U:20(qc=5)
REM Fe 3|2.2|2.0|1.0|8|9|10|40:41:32(qc=5)
REM 
CELL 1.54180    6.19052    5.75014    8.31707   47.17185   54.86069   72.12551
LATT -1
SFAC Li O  S  Fe 
Li     1  0.3051700000000  0.3058640000000 -0.0066800000000 1.0  -0.01
Li     1 -0.3051700000000 -0.3058640000000  0.0066800000000 1.0  -0.01
O      2  0.0073080000000 -0.0327340000000 -0.3206430000000 1.0  -0.33
O      2 -0.0073080000000  0.0327340000000  0.3206430000000 1.0  -0.33
S      3 -0.2621270000000  0.2798860000000 -0.0423560000000 1.0  -0.19
S      3  0.2621270000000 -0.2798860000000  0.0423560000000 1.0  -0.19
S      3 -0.5000000000000 -0.5000000000000  0.5000000000000 1.0  -0.17
Fe     4 -0.1298850000000 -0.1305220000000  0.2402880000000 1.0  -3.00
Fe     4  0.1298850000000  0.1305220000000 -0.2402880000000 1.0  -3.00
Fe     4  0.0825920000000 -0.3025180000000 -0.4121590000000 1.0  -3.36
Fe     4 -0.0825920000000  0.3025180000000  0.4121590000000 1.0  -3.36
END
