TITL LFSO-Li2Fe4S4O-200911-214105-175067 -0.0606 324.139156 -1.10114838E+004 -3.90927 4.91257 22 (P3) n - 1
REM
REM Run started: Sun, 13 Sep 2020 15:23:51 +0100 in /lustre/scratch/uccabz1/launch_tmp/launcher_2020-09-13-13-42-21-899550
REM CASTEP 20.1 from code version af48c487+ pr-geom-scf-spinfix Tue Jun 2 15:39:59 2020 +0100
REM Functional Perdew Burke Ernzerhof Relativity Koelling-Harmon Dispersion off
REM Cut-off 340.0000 eV Grid scale 1.7500 Gmax 16.5316 1/A FBSC none
REM MP grid 3 3 3 Offset 0.000 0.000 0.000 No. kpts 8 Spacing 0.07
REM Total runtime: 147521 s
REM Overall efficiency: 98.2667 %
REM
REM
REM
REM compiler GCC version 4.9.2
REM options -cpp -iprefix /lustre/shared/ucl/apps/gcc/4.9.2/bin/../lib/gcc/x86_64-unknown-linux-gnu/4.9.2/ -mtune=corei7 -march=x86-64 -g -Og
REM COMMAND_LINE
REM seed -412576069 1884243986 -1361557183 -361203141 -362161953 690421850 1149025980 -1174193306 -191632077 2437604 198741724 -188785789
REM
REM S 3|1.8|5|6|7|30:31:32(qc=5)
REM O 2|1.5|12|13|15|20:21(qc=5)
REM Li 1|1.3|8|9|10|10U:20(qc=5)
REM Fe 3|2.2|2.0|1.0|8|9|10|40:41:32(qc=5)
REM 
CELL 1.54180    6.34080    7.68296    7.68296  120.00000   90.00000   90.00000
LATT -1
SFAC Li O  S  Fe 
Li     1 -0.0727470000000  0.1779010000000 -0.1938310000000 1.0   0.00
Li     1 -0.0727470000000 -0.3717340000000 -0.1779010000000 1.0   0.00
Li     1 -0.0727470000000  0.1938310000000  0.3717340000000 1.0   0.00
Li     1  0.6260130000000  0.3333330000000 -0.3333330000000 1.0  -0.02
O      2 -0.0821450000000  0.3333330000000 -0.3333330000000 1.0  -0.12
O      2 -0.2451940000000 -0.0000000000000  0.0000000000000 1.0   0.00
S      3  0.3662760000000 -0.3809600000000 -0.1882440000000 1.0  -0.02
S      3  0.3662760000000  0.1927150000000  0.3809600000000 1.0  -0.02
S      3  0.3662760000000  0.1882440000000 -0.1927150000000 1.0  -0.02
S      3 -0.0037520000000 -0.1727590000000  0.1864390000000 1.0   0.00
S      3 -0.0037520000000  0.3591970000000  0.1727590000000 1.0   0.00
S      3 -0.0037520000000 -0.1864390000000 -0.3591970000000 1.0   0.00
S      3 -0.4891880000000 -0.0000000000000  0.0000000000000 1.0   0.03
S      3 -0.5753400000000 -0.3333340000000  0.3333340000000 1.0   0.01
Fe     4  0.3515950000000  0.2856170000000  0.1409660000000 1.0  -0.13
Fe     4  0.3515950000000 -0.1446520000000 -0.2856170000000 1.0  -0.13
Fe     4  0.3515950000000 -0.1409660000000  0.1446520000000 1.0  -0.13
Fe     4 -0.3219460000000 -0.2314290000000 -0.4569670000000 1.0  -0.12
Fe     4 -0.3219460000000 -0.2255390000000  0.2314290000000 1.0  -0.12
Fe     4 -0.3219460000000  0.4569670000000  0.2255390000000 1.0  -0.12
Fe     4  0.2076710000000  0.3333330000000 -0.3333330000000 1.0  -1.92
Fe     4  0.0982720000000 -0.3333340000000  0.3333340000000 1.0  -1.13
END
