TITL LFSO-Li2Fe2S3O-200913-020257-1b34da 0.0764 394.298560 -1.04258539E+004 18.9738 19.5039 24 (I-4) n - 1
REM
REM Run started: Sun, 13 Sep 2020 18:44:21 +0100 in /lustre/scratch/uccabz1/launch_tmp/launcher_2020-09-13-15-33-37-593515
REM CASTEP 20.1 from code version af48c487+ pr-geom-scf-spinfix Tue Jun 2 15:39:59 2020 +0100
REM Functional Perdew Burke Ernzerhof Relativity Koelling-Harmon Dispersion off
REM Cut-off 340.0000 eV Grid scale 1.7500 Gmax 16.5316 1/A FBSC none
REM MP grid 3 3 3 Offset 0.000 0.000 0.000 No. kpts 6 Spacing 0.07
REM Total runtime: 66508.8 s
REM Overall efficiency: 98.8182 %
REM
REM
REM
REM compiler GCC version 4.9.2
REM options -cpp -iprefix /lustre/shared/ucl/apps/gcc/4.9.2/bin/../lib/gcc/x86_64-unknown-linux-gnu/4.9.2/ -mtune=corei7 -march=x86-64 -g -Og
REM COMMAND_LINE
REM seed -1356337912 1190328873 1056213073 -34332728 632797861 1343731768 -88784962 -708386031 -433336551 -544570634 -378889031 -1836025266
REM
REM S 3|1.8|5|6|7|30:31:32(qc=5)
REM O 2|1.5|12|13|15|20:21(qc=5)
REM Li 1|1.3|8|9|10|10U:20(qc=5)
REM Fe 3|2.2|2.0|1.0|8|9|10|40:41:32(qc=5)
REM 
CELL 1.54180    7.68556    7.68556    8.60780  116.51486  116.51486   90.00000
LATT -1
SFAC Li O  S  Fe 
Li     1 -0.5125050000000  0.3536240000000  0.4608310000000 1.0  -0.02
Li     1 -0.0266640000000  0.1072070000000  0.4608310000000 1.0  -0.02
Li     1 -0.3536240000000  0.0266640000000 -0.4608310000000 1.0  -0.02
Li     1 -0.1072070000000  0.5125050000000 -0.4608310000000 1.0  -0.02
Li     1 -0.3736750000000 -0.3736750000000  0.2526510000000 1.0   0.06
Li     1  0.3736750000000  0.3736750000000 -0.2526510000000 1.0   0.06
O      2  0.4656830000000 -0.0343170000000 -0.0686340000000 1.0   0.21
O      2  0.0343170000000 -0.4656830000000  0.0686340000000 1.0   0.21
O      2 -0.2500000000000  0.2500000000000  0.5000000000000 1.0   0.15
S      3  0.1572560000000 -0.3573300000000 -0.1200780000000 1.0   0.08
S      3 -0.2773340000000  0.2372520000000 -0.1200780000000 1.0   0.08
S      3  0.3573300000000  0.2773340000000  0.1200780000000 1.0   0.08
S      3 -0.2372520000000 -0.1572560000000  0.1200780000000 1.0   0.08
S      3 -0.0340700000000 -0.1625390000000 -0.4538080000000 1.0   0.15
S      3 -0.4197390000000 -0.2912700000000 -0.4538080000000 1.0   0.15
S      3  0.1625390000000  0.4197390000000  0.4538080000000 1.0   0.15
S      3  0.2912700000000  0.0340700000000  0.4538080000000 1.0   0.15
S      3  0.2500000000000 -0.2500000000000 -0.5000000000000 1.0   0.10
Fe     4  0.0566270000000  0.3117680000000  0.1209770000000 1.0   3.17
Fe     4  0.0643500000000 -0.1907910000000  0.1209770000000 1.0   3.17
Fe     4 -0.3117680000000 -0.0643500000000 -0.1209770000000 1.0   3.17
Fe     4  0.1907910000000 -0.0566270000000 -0.1209770000000 1.0   3.17
Fe     4 -0.1012570000000  0.3987430000000 -0.2025140000000 1.0   2.34
Fe     4 -0.3987430000000  0.1012570000000  0.2025140000000 1.0   2.34
END
