TITL LFSO-Li4Fe2S3O2-200911-060817-4a8e60 0.0094 183.991728 -4.31452271E+003 6.04507 6.65213 11 (Cmm2) n - 1
REM
REM Run started: Fri, 11 Sep 2020 07:12:23 +0100 in /lustre/scratch/uccabz1/launch_tmp/launcher_2020-09-11-05-08-15-754091
REM CASTEP 20.1 from code version af48c487+ pr-geom-scf-spinfix Tue Jun 2 15:39:59 2020 +0100
REM Functional Perdew Burke Ernzerhof Relativity Koelling-Harmon Dispersion off
REM Cut-off 340.0000 eV Grid scale 1.7500 Gmax 16.5316 1/A FBSC none
REM MP grid 4 2 3 Offset 0.000 0.000 0.000 No. kpts 8 Spacing 0.07
REM Total runtime: 4187.44 s
REM Overall efficiency: 96.1667 %
REM
REM
REM
REM compiler GCC version 4.9.2
REM options -cpp -iprefix /lustre/shared/ucl/apps/gcc/4.9.2/bin/../lib/gcc/x86_64-unknown-linux-gnu/4.9.2/ -mtune=corei7 -march=x86-64 -g -Og
REM COMMAND_LINE
REM seed -827446480 -621894663 366531528 -168246370 -2075674559 1364124975 1121215189 1083765348 426496632 -45829403 -1015951843 -298611984
REM
REM S 3|1.8|5|6|7|30:31:32(qc=5)
REM O 2|1.5|12|13|15|20:21(qc=5)
REM Li 1|1.3|8|9|10|10U:20(qc=5)
REM Fe 3|2.2|2.0|1.0|8|9|10|40:41:32(qc=5)
REM 
CELL 1.54180    3.89471    8.08089    6.03379   90.00000   90.00000  104.32917
LATT -1
SFAC Li O  S  Fe 
Li     1  0.4161370000000  0.3331890000000  0.2628370000000 1.0   0.01
Li     1 -0.4161370000000 -0.3331890000000  0.2628370000000 1.0   0.01
Li     1  0.1896230000000 -0.1211000000000  0.1410450000000 1.0  -0.01
Li     1 -0.1896230000000  0.1211000000000  0.1410450000000 1.0  -0.01
O      2  0.3202350000000  0.1386850000000  0.0790550000000 1.0   0.33
O      2 -0.3202350000000 -0.1386850000000  0.0790550000000 1.0   0.33
S      3 -0.1596630000000  0.1762160000000 -0.3796660000000 1.0   0.05
S      3  0.1596630000000 -0.1762160000000 -0.3796660000000 1.0   0.05
S      3  0.0000000000000 -0.5000000000000  0.2779530000000 1.0  -0.24
Fe     4  0.2998760000000  0.0976260000000 -0.2143140000000 1.0   2.76
Fe     4 -0.2998760000000 -0.0976260000000 -0.2143140000000 1.0   2.76
END
