TITL LFSO-LiFe3SO4-200908-234853-1cab84 0.0274 270.036260 -9.69177637E+003 17.9967 18.3160 18 (P3) n - 1
REM
REM Run started: Wed, 09 Sep 2020 07:59:56 +0100 in /lustre/scratch/uccabz1/launch_tmp/launcher_2020-09-08-22-48-51-605160
REM CASTEP 20.1 from code version af48c487+ pr-geom-scf-spinfix Tue Jun 2 15:39:59 2020 +0100
REM Functional Perdew Burke Ernzerhof Relativity Koelling-Harmon Dispersion off
REM Cut-off 340.0000 eV Grid scale 1.7500 Gmax 16.5316 1/A FBSC none
REM MP grid 3 3 3 Offset 0.000 0.000 0.000 No. kpts 8 Spacing 0.07
REM Total runtime: 29703.6 s
REM Overall efficiency: 97.7 %
REM
REM
REM
REM compiler GCC version 4.9.2
REM options -cpp -iprefix /lustre/shared/ucl/apps/gcc/4.9.2/bin/../lib/gcc/x86_64-unknown-linux-gnu/4.9.2/ -mtune=corei7 -march=x86-64 -g -Og
REM COMMAND_LINE
REM seed 1364541473 -1525485734 -1882616200 841607502 1841336521 -1237964797 221229509 656021784 1879897532 -2110321982 342436114 593216253
REM
REM S 3|1.8|5|6|7|30:31:32(qc=5)
REM O 2|1.5|12|13|15|20:21(qc=5)
REM Li 1|1.3|8|9|10|10U:20(qc=5)
REM Fe 3|2.2|2.0|1.0|8|9|10|40:41:32(qc=5)
REM 
CELL 1.54180    7.42516    7.42516    5.65562   90.00000   90.00000  120.00000
LATT -1
SFAC Li O  S  Fe 
Li     1 -0.0000000000000  0.0000000000000 -0.6785610000000 1.0   0.01
Li     1 -0.0000000000000  0.0000000000000 -0.2150460000000 1.0   0.01
O      2  0.2386810000000  0.0226840000000  0.5809240000000 1.0   0.31
O      2 -0.0226840000000  0.2159970000000  0.5809240000000 1.0   0.31
O      2 -0.2159970000000 -0.2386810000000  0.5809240000000 1.0   0.31
O      2 -0.2458170000000 -0.0235790000000 -0.0482460000000 1.0   0.32
O      2  0.0235790000000 -0.2222380000000 -0.0482460000000 1.0   0.32
O      2  0.2222380000000  0.2458170000000 -0.0482460000000 1.0   0.32
O      2  0.3333330000000 -0.3333330000000 -0.0686190000000 1.0   0.17
O      2 -0.3333330000000  0.3333330000000 -0.4022770000000 1.0   0.17
S      3  0.3333330000000 -0.3333330000000  0.4609370000000 1.0   0.16
S      3 -0.3333330000000  0.3333330000000  0.0682380000000 1.0   0.15
Fe     4  0.2364240000000 -0.1857730000000 -0.2493020000000 1.0   2.57
Fe     4  0.1857730000000  0.4221970000000 -0.2493020000000 1.0   2.57
Fe     4 -0.4221970000000 -0.2364240000000 -0.2493020000000 1.0   2.57
Fe     4 -0.2372840000000  0.1852790000000 -0.2203850000000 1.0   2.57
Fe     4 -0.1852790000000 -0.4225630000000 -0.2203850000000 1.0   2.57
Fe     4  0.4225630000000  0.2372840000000 -0.2203850000000 1.0   2.57
END
