TITL LFSO-LiFe3S2O3-200909-183210-55772c -0.0399 115.196414 -4.71026804E+003 -7.91546 8.27381 9 (Amm2) n - 1
REM
REM Run started: Wed, 09 Sep 2020 19:53:38 +0100 in /lustre/scratch/uccabz1/launch_tmp/launcher_2020-09-09-17-32-08-167194
REM CASTEP 20.1 from code version af48c487+ pr-geom-scf-spinfix Tue Jun 2 15:39:59 2020 +0100
REM Functional Perdew Burke Ernzerhof Relativity Koelling-Harmon Dispersion off
REM Cut-off 340.0000 eV Grid scale 1.7500 Gmax 16.5316 1/A FBSC none
REM MP grid 5 5 2 Offset 0.000 0.000 0.000 No. kpts 9 Spacing 0.07
REM Total runtime: 5530.86 s
REM Overall efficiency: 95.5 %
REM
REM
REM
REM compiler GCC version 4.9.2
REM options -cpp -iprefix /lustre/shared/ucl/apps/gcc/4.9.2/bin/../lib/gcc/x86_64-unknown-linux-gnu/4.9.2/ -mtune=corei7 -march=x86-64 -g -Og
REM COMMAND_LINE
REM seed -943946564 -1310384009 -1912327232 -1609939927 133497399 949209396 208091604 -1303994017 1082763077 1112803162 41868009 -1919806398
REM
REM S 3|1.8|5|6|7|30:31:32(qc=5)
REM O 2|1.5|12|13|15|20:21(qc=5)
REM Li 1|1.3|8|9|10|10U:20(qc=5)
REM Fe 3|2.2|2.0|1.0|8|9|10|40:41:32(qc=5)
REM 
CELL 1.54180    3.45867    3.45867    9.71180   90.00000   90.00000   82.55306
LATT -1
SFAC Li O  S  Fe 
Li     1  0.5213470000000  0.5213470000000  0.0000000000000 1.0   0.04
O      2 -0.0045500000000 -0.0045500000000 -0.3711480000000 1.0  -0.37
O      2 -0.0045500000000 -0.0045500000000  0.3711480000000 1.0  -0.37
O      2  0.0692610000000  0.0692610000000  0.0000000000000 1.0  -0.27
S      3 -0.5033860000000 -0.5033860000000 -0.2378460000000 1.0   0.08
S      3 -0.5033860000000 -0.5033860000000  0.2378460000000 1.0   0.08
Fe     4  0.0789160000000  0.0789160000000 -0.1912990000000 1.0  -1.76
Fe     4  0.0789160000000  0.0789160000000  0.1912990000000 1.0  -1.76
Fe     4 -0.2611020000000 -0.2611020000000 -0.5000000000000 1.0  -3.58
END
