TITL LFSO-Li2Fe3S3O-200912-203501-145185 0.0067 272.449863 -8.67877710E+003 12.4930 13.4061 18 (P3) n - 1
REM
REM Run started: Sun, 13 Sep 2020 11:24:10 +0100 in /lustre/scratch/uccabz1/launch_tmp/launcher_2020-09-12-19-34-59-613216
REM CASTEP 20.1 from code version af48c487+ pr-geom-scf-spinfix Tue Jun 2 15:39:59 2020 +0100
REM Functional Perdew Burke Ernzerhof Relativity Koelling-Harmon Dispersion off
REM Cut-off 340.0000 eV Grid scale 1.7500 Gmax 16.5316 1/A FBSC none
REM MP grid 3 3 2 Offset 0.000 0.000 0.000 No. kpts 5 Spacing 0.07
REM Total runtime: 53444.3 s
REM Overall efficiency: 83 %
REM
REM
REM
REM compiler GCC version 4.9.2
REM options -cpp -iprefix /lustre/shared/ucl/apps/gcc/4.9.2/bin/../lib/gcc/x86_64-unknown-linux-gnu/4.9.2/ -mtune=corei7 -march=x86-64 -g -Og
REM COMMAND_LINE
REM seed -592283427 -1331793364 426883019 190569112 757769217 1071292990 -1026232304 -141988764 1751992466 1626938412 -1240285257 1344948210
REM
REM S 3|1.8|5|6|7|30:31:32(qc=5)
REM O 2|1.5|12|13|15|20:21(qc=5)
REM Li 1|1.3|8|9|10|10U:20(qc=5)
REM Fe 3|2.2|2.0|1.0|8|9|10|40:41:32(qc=5)
REM 
CELL 1.54180    6.56712    6.56712    7.29468   90.00000   90.00000  120.00000
LATT -1
SFAC Li O  S  Fe 
Li     1 -0.3901850000000 -0.4485820000000  0.4652710000000 1.0   0.01
Li     1 -0.0583970000000  0.3901850000000  0.4652710000000 1.0   0.01
Li     1  0.4485820000000  0.0583970000000  0.4652710000000 1.0   0.01
Li     1 -0.0000000000000  0.0000000000000 -0.4372940000000 1.0   0.09
O      2  0.3333330000000 -0.3333330000000 -0.1946170000000 1.0   0.15
O      2 -0.3333330000000  0.3333330000000 -0.4552090000000 1.0  -0.16
S      3  0.3206710000000  0.3368750000000  0.2301410000000 1.0   0.08
S      3  0.0162040000000 -0.3206710000000  0.2301410000000 1.0   0.08
S      3 -0.3368750000000 -0.0162040000000  0.2301410000000 1.0   0.08
S      3  0.3137640000000  0.1078810000000 -0.2025270000000 1.0  -0.01
S      3 -0.2058830000000 -0.3137640000000 -0.2025270000000 1.0  -0.01
S      3 -0.1078810000000  0.2058830000000 -0.2025270000000 1.0  -0.01
Fe     4 -0.3854650000000 -0.1266670000000 -0.0675640000000 1.0   1.74
Fe     4  0.2587980000000  0.3854650000000 -0.0675640000000 1.0   1.74
Fe     4  0.1266670000000 -0.2587980000000 -0.0675640000000 1.0   1.74
Fe     4 -0.3240990000000 -0.4365340000000  0.0737490000000 1.0   2.32
Fe     4 -0.1124350000000  0.3240990000000  0.0737490000000 1.0   2.32
Fe     4  0.4365340000000  0.1124350000000  0.0737490000000 1.0   2.32
END
