TITL LFSO-Li2FeSO-200912-031840-4cfb6c -0.1621 274.357225 -6.01481577E+003 -9.95232 10.3049 15 (Pm) n - 1
REM
REM Run started: Sat, 12 Sep 2020 11:07:28 +0100 in /lustre/scratch/uccabz1/launch_tmp/launcher_2020-09-12-02-18-39-313938
REM CASTEP 20.1 from code version af48c487+ pr-geom-scf-spinfix Tue Jun 2 15:39:59 2020 +0100
REM Functional Perdew Burke Ernzerhof Relativity Koelling-Harmon Dispersion off
REM Cut-off 340.0000 eV Grid scale 1.7500 Gmax 16.5316 1/A FBSC none
REM MP grid 4 3 2 Offset 0.000 0.000 0.000 No. kpts 6 Spacing 0.07
REM Total runtime: 31224.7 s
REM Overall efficiency: 93 %
REM
REM
REM
REM compiler GCC version 4.9.2
REM options -cpp -iprefix /lustre/shared/ucl/apps/gcc/4.9.2/bin/../lib/gcc/x86_64-unknown-linux-gnu/4.9.2/ -mtune=corei7 -march=x86-64 -g -Og
REM COMMAND_LINE
REM seed 147120156 -1162489096 -1817542702 -953295473 -887188425 -966144741 1858211300 1199421469 847989639 2063929349 144258787 -2020708155
REM
REM S 3|1.8|5|6|7|30:31:32(qc=5)
REM O 2|1.5|12|13|15|20:21(qc=5)
REM Li 1|1.3|8|9|10|10U:20(qc=5)
REM Fe 3|2.2|2.0|1.0|8|9|10|40:41:32(qc=5)
REM 
CELL 1.54180    3.61579    7.45104   10.26417   90.00000   90.00000   97.18921
LATT -1
SFAC Li O  S  Fe 
Li     1 -0.2529800000000 -0.0121170000000  0.3292170000000 1.0  -0.06
Li     1 -0.2529800000000 -0.0121170000000 -0.3292170000000 1.0  -0.06
Li     1  0.6097070000000 -0.3652380000000 -0.1491360000000 1.0   0.01
Li     1  0.6097070000000 -0.3652380000000  0.1491360000000 1.0   0.01
Li     1  0.0985020000000 -0.4108600000000  0.3345060000000 1.0   0.07
Li     1  0.0985020000000 -0.4108600000000 -0.3345060000000 1.0   0.07
O      2 -0.3775440000000 -0.3046310000000  0.3255140000000 1.0  -0.15
O      2 -0.3775440000000 -0.3046310000000 -0.3255140000000 1.0  -0.15
O      2 -0.1265150000000 -0.0363420000000  0.5000000000000 1.0  -0.35
S      3  0.5033130000000  0.2395880000000 -0.2180310000000 1.0  -0.19
S      3  0.5033130000000  0.2395880000000  0.2180310000000 1.0  -0.19
S      3  0.0999790000000 -0.3994630000000  0.0000000000000 1.0  -0.19
Fe     4  0.0262750000000  0.3211330000000  0.1071970000000 1.0  -2.95
Fe     4  0.0262750000000  0.3211330000000 -0.1071970000000 1.0  -2.95
Fe     4 -0.3309800000000 -0.2610480000000 -0.5000000000000 1.0  -2.88
END
