TITL LFSO-LiFeSO-200909-033510-bd70b0 0.0440 191.056577 -5.41600845E+003 0.192316E-02 0.786607E-02 12 (P32) n - 1
REM
REM Run started: Wed, 09 Sep 2020 15:09:16 +0100 in /lustre/scratch/uccabz1/launch_tmp/launcher_2020-09-09-02-35-07-836257
REM CASTEP 20.1 from code version af48c487+ pr-geom-scf-spinfix Tue Jun 2 15:39:59 2020 +0100
REM Functional Perdew Burke Ernzerhof Relativity Koelling-Harmon Dispersion off
REM Cut-off 340.0000 eV Grid scale 1.7500 Gmax 16.5316 1/A FBSC none
REM MP grid 5 2 2 Offset 0.000 0.000 0.000 No. kpts 10 Spacing 0.07
REM Total runtime: 41690.8 s
REM Overall efficiency: 83.6154 %
REM
REM
REM
REM compiler GCC version 4.9.2
REM options -cpp -iprefix /lustre/shared/ucl/apps/gcc/4.9.2/bin/../lib/gcc/x86_64-unknown-linux-gnu/4.9.2/ -mtune=corei7 -march=x86-64 -g -Og
REM COMMAND_LINE
REM seed 1463061919 -2070967230 1325921529 85702967 -661029076 -15340454 -649057888 56985616 -844357487 471952406 -633011515 -1931635845
REM
REM S 3|1.8|5|6|7|30:31:32(qc=5)
REM O 2|1.5|12|13|15|20:21(qc=5)
REM Li 1|1.3|8|9|10|10U:20(qc=5)
REM Fe 3|2.2|2.0|1.0|8|9|10|40:41:32(qc=5)
REM 
CELL 1.54180    3.19481    8.30985    8.30985  120.00000   90.00000   90.00000
LATT -1
SFAC Li O  S  Fe 
Li     1 -0.4118480000000  0.3143930000000  0.3122120000000 1.0
Li     1 -0.0785150000000 -0.0021810000000 -0.3143930000000 1.0
Li     1  0.2548190000000 -0.3122120000000  0.0021810000000 1.0
O      2 -0.2303600000000 -0.4707050000000 -0.1353210000000 1.0
O      2  0.1029730000000  0.3353840000000  0.4707050000000 1.0
O      2 -0.5636940000000  0.1353210000000 -0.3353840000000 1.0
S      3 -0.2433120000000 -0.0512350000000  0.2707960000000 1.0
S      3  0.0900210000000  0.3220310000000  0.0512350000000 1.0
S      3  0.4233540000000 -0.2707960000000 -0.3220310000000 1.0
Fe     4 -0.4089420000000  0.3336680000000 -0.1132670000000 1.0
Fe     4 -0.0756090000000 -0.4469350000000 -0.3336680000000 1.0
Fe     4  0.2577240000000  0.1132670000000  0.4469350000000 1.0
END
