TITL LFSO-Li6FeS3O-200910-040510-7a841a -0.0038 261.400178 -3.41139167E+003 -3.99997 4.15918 11 (Cmm2) n - 1
REM
REM Run started: Thu, 10 Sep 2020 06:43:17 +0100 in /lustre/scratch/uccabz1/launch_tmp/launcher_2020-09-10-03-05-09-035242
REM CASTEP 20.1 from code version af48c487+ pr-geom-scf-spinfix Tue Jun 2 15:39:59 2020 +0100
REM Functional Perdew Burke Ernzerhof Relativity Koelling-Harmon Dispersion off
REM Cut-off 340.0000 eV Grid scale 1.7500 Gmax 16.5316 1/A FBSC none
REM MP grid 3 3 3 Offset 0.000 0.000 0.000 No. kpts 8 Spacing 0.07
REM Total runtime: 9869.16 s
REM Overall efficiency: 96.0769 %
REM
REM
REM
REM compiler GCC version 4.9.2
REM options -cpp -iprefix /lustre/shared/ucl/apps/gcc/4.9.2/bin/../lib/gcc/x86_64-unknown-linux-gnu/4.9.2/ -mtune=corei7 -march=x86-64 -g -Og
REM COMMAND_LINE
REM seed 351316884 -172942921 -1061794602 440946989 -22862389 43705281 -932153703 1140935950 47703159 -834302320 1709379989 -1813601893
REM
REM S 3|1.8|5|6|7|30:31:32(qc=5)
REM O 2|1.5|12|13|15|20:21(qc=5)
REM Li 1|1.3|8|9|10|10U:20(qc=5)
REM Fe 3|2.2|2.0|1.0|8|9|10|40:41:32(qc=5)
REM 
CELL 1.54180    6.33435    6.33435    7.20887   90.00000   90.00000  115.34831
LATT -1
SFAC Li O  S  Fe 
Li     1 -0.0348190000000 -0.2960390000000  0.4325640000000 1.0   0.02
Li     1  0.0348190000000  0.2960390000000  0.4325640000000 1.0   0.02
Li     1 -0.2960390000000 -0.0348190000000  0.4325640000000 1.0   0.02
Li     1  0.2960390000000  0.0348190000000  0.4325640000000 1.0   0.02
Li     1  0.2419370000000  0.2419370000000  0.1383490000000 1.0  -0.04
Li     1 -0.2419370000000 -0.2419370000000  0.1383490000000 1.0  -0.04
O      2  0.0000000000000  0.0000000000000  0.3266920000000 1.0  -0.00
S      3 -0.3302400000000  0.3302400000000 -0.5805050000000 1.0  -0.15
S      3  0.3302400000000 -0.3302400000000 -0.5805050000000 1.0  -0.15
S      3 -0.5000000000000 -0.5000000000000 -0.0874400000000 1.0  -0.27
Fe     4  0.5000000000000  0.5000000000000 -0.3892060000000 1.0  -3.40
END
