TITL LFSO-Li3Fe3SO5-200926-114118-0a9e04 -0.0270 317.628189 -1.13675890E+004 18.9467 19.3630 24 (C2) n - 1
REM
REM Run started: Sat, 26 Sep 2020 23:00:04 +0100 in /lustre/scratch/uccabz1/launch_tmp/launcher_2020-09-26-10-41-15-877150
REM CASTEP 20.1 from code version af48c487+ pr-geom-scf-spinfix Tue Jun 2 15:39:59 2020 +0100
REM Functional Perdew Burke Ernzerhof Relativity Koelling-Harmon Dispersion off
REM Cut-off 340.0000 eV Grid scale 1.7500 Gmax 16.5316 1/A FBSC none
REM MP grid 3 3 3 Offset 0.000 0.000 0.000 No. kpts 10 Spacing 0.07
REM Total runtime: 40959.1 s
REM Overall efficiency: 74.3333 %
REM
REM
REM
REM compiler GCC version 4.9.2
REM options -cpp -iprefix /lustre/shared/ucl/apps/gcc/4.9.2/bin/../lib/gcc/x86_64-unknown-linux-gnu/4.9.2/ -mtune=corei7 -march=x86-64 -g -Og
REM COMMAND_LINE
REM seed -2071935425 1470782903 -1409994957 -1555799695 -1877464237 1290042361 -1937657745 -1337406322 -1718084912 1882104268 308387264 1555738410
REM
REM S 3|1.8|5|6|7|30:31:32(qc=5)
REM O 2|1.5|12|13|15|20:21(qc=5)
REM Li 1|1.3|8|9|10|10U:20(qc=5)
REM Fe 3|2.2|2.0|1.0|8|9|10|40:41:32(qc=5)
REM 
CELL 1.54180    6.10343    7.42763    7.42763   75.40800   79.81987   79.81987
LATT -1
SFAC Li O  S  Fe 
Li     1 -0.0871830000000  0.3880340000000  0.3359600000000 1.0   0.01
Li     1  0.0871830000000 -0.3359600000000 -0.3880340000000 1.0   0.01
Li     1  0.4182310000000  0.4862330000000  0.2862970000000 1.0   0.04
Li     1 -0.4182310000000 -0.2862970000000 -0.4862330000000 1.0   0.04
Li     1  0.3858460000000  0.1919150000000 -0.3619840000000 1.0   0.00
Li     1 -0.3858460000000  0.3619840000000 -0.1919150000000 1.0   0.00
O      2 -0.1781570000000 -0.1540990000000  0.4787320000000 1.0   0.31
O      2  0.1781570000000 -0.4787320000000  0.1540990000000 1.0   0.31
O      2 -0.3181490000000 -0.4175710000000  0.2053950000000 1.0   0.32
O      2  0.3181490000000 -0.2053950000000  0.4175710000000 1.0   0.32
O      2  0.0606870000000  0.1818310000000  0.1296830000000 1.0   0.18
O      2 -0.0606870000000 -0.1296830000000 -0.1818310000000 1.0   0.18
O      2  0.1612610000000  0.1546130000000 -0.5125550000000 1.0   0.16
O      2 -0.1612610000000  0.5125550000000 -0.1546130000000 1.0   0.16
O      2  0.3036250000000 -0.5718930000000 -0.2613830000000 1.0   0.36
O      2 -0.3036250000000  0.2613830000000  0.5718930000000 1.0   0.36
S      3  0.4343260000000 -0.1431710000000 -0.1366530000000 1.0   0.11
S      3 -0.4343260000000  0.1366530000000  0.1431710000000 1.0   0.11
Fe     4 -0.1199680000000  0.0030490000000  0.2562050000000 1.0   2.71
Fe     4  0.1199680000000 -0.2562050000000 -0.0030490000000 1.0   2.71
Fe     4 -0.2502720000000 -0.3060650000000 -0.0233250000000 1.0   1.89
Fe     4  0.2502720000000  0.0233250000000  0.3060650000000 1.0   1.89
Fe     4  0.1102750000000  0.4146620000000 -0.0506040000000 1.0   3.39
Fe     4 -0.1102750000000  0.0506040000000 -0.4146620000000 1.0   3.39
END
