TITL LFSO-Li5FeS2O2-200920-223833-109426 0.7120 373.241416 -6.69657043E+003 6.03047 6.60043 20 (P-1) n - 1
REM
REM Run started: Mon, 21 Sep 2020 09:10:22 +0100 in /lustre/scratch/uccabz1/launch_tmp/launcher_2020-09-20-21-38-32-122732
REM CASTEP 20.1 from code version af48c487+ pr-geom-scf-spinfix Tue Jun 2 15:39:59 2020 +0100
REM Functional Perdew Burke Ernzerhof Relativity Koelling-Harmon Dispersion off
REM Cut-off 340.0000 eV Grid scale 1.7500 Gmax 16.5316 1/A FBSC none
REM MP grid 3 2 3 Offset 0.000 0.000 0.000 No. kpts 9 Spacing 0.07
REM Total runtime: 47173.8 s
REM Overall efficiency: 96.4167 %
REM
REM
REM
REM compiler GCC version 4.9.2
REM options -cpp -iprefix /lustre/shared/ucl/apps/gcc/4.9.2/bin/../lib/gcc/x86_64-unknown-linux-gnu/4.9.2/ -mtune=corei7 -march=x86-64 -g -Og
REM COMMAND_LINE
REM seed 755292211 1328952979 -666152711 1604541992 1845730600 -712475260 413823479 797034953 -932317879 -143798158 287470803 1601577131
REM
REM S 3|1.8|5|6|7|30:31:32(qc=5)
REM O 2|1.5|12|13|15|20:21(qc=5)
REM Li 1|1.3|8|9|10|10U:20(qc=5)
REM Fe 3|2.2|2.0|1.0|8|9|10|40:41:32(qc=5)
REM 
CELL 1.54180    7.59294   14.45648   12.81497  152.71173   39.90883  143.96300
LATT -1
SFAC Li O  S  Fe 
Li     1 -0.2275320000000 -0.2602410000000  0.0566810000000 1.0   0.02
Li     1  0.2275320000000  0.2602410000000 -0.0566810000000 1.0   0.02
Li     1  0.2698440000000 -0.1233380000000  0.4218800000000 1.0   0.00
Li     1 -0.2698440000000  0.1233380000000 -0.4218800000000 1.0   0.00
Li     1 -0.3672860000000  0.2784550000000  0.1857070000000 1.0  -0.00
Li     1  0.3672860000000 -0.2784550000000 -0.1857070000000 1.0  -0.00
Li     1 -0.4385790000000 -0.0759050000000  0.1355220000000 1.0  -0.02
Li     1  0.4385790000000  0.0759050000000 -0.1355220000000 1.0  -0.02
Li     1  0.3537220000000  0.5315850000000  0.3922430000000 1.0   0.02
Li     1 -0.3537220000000 -0.5315850000000 -0.3922430000000 1.0   0.02
O      2 -0.3643170000000 -0.0457560000000  0.2786980000000 1.0   0.12
O      2  0.3643170000000  0.0457560000000 -0.2786980000000 1.0   0.12
O      2 -0.3762460000000 -0.2763050000000 -0.1775420000000 1.0   0.19
O      2  0.3762460000000  0.2763050000000  0.1775420000000 1.0   0.19
S      3 -0.0540010000000  0.4717200000000 -0.3572710000000 1.0   0.08
S      3  0.0540010000000 -0.4717200000000  0.3572710000000 1.0   0.08
S      3  0.1568720000000  0.0140620000000  0.2420300000000 1.0   0.03
S      3 -0.1568720000000 -0.0140620000000 -0.2420300000000 1.0   0.03
Fe     4  0.0365890000000  0.1652550000000  0.2957160000000 1.0   2.56
Fe     4 -0.0365890000000 -0.1652550000000 -0.2957160000000 1.0   2.56
END
