TITL LFSO-Li2Fe4S2O3-200912-080241-d783e5 -0.0151 169.860990 -5.77061830E+003 12.4039 12.8101 11 (I222) n - 1
REM
REM Run started: Sat, 12 Sep 2020 09:58:27 +0100 in /lustre/scratch/uccabz1/launch_tmp/launcher_2020-09-12-07-02-38-443019
REM CASTEP 20.1 from code version af48c487+ pr-geom-scf-spinfix Tue Jun 2 15:39:59 2020 +0100
REM Functional Perdew Burke Ernzerhof Relativity Koelling-Harmon Dispersion off
REM Cut-off 340.0000 eV Grid scale 1.7500 Gmax 16.5316 1/A FBSC none
REM MP grid 4 3 3 Offset 0.000 0.000 0.000 No. kpts 12 Spacing 0.07
REM Total runtime: 7033.24 s
REM Overall efficiency: 94.7143 %
REM
REM
REM
REM compiler GCC version 4.9.2
REM options -cpp -iprefix /lustre/shared/ucl/apps/gcc/4.9.2/bin/../lib/gcc/x86_64-unknown-linux-gnu/4.9.2/ -mtune=corei7 -march=x86-64 -g -Og
REM COMMAND_LINE
REM seed 1655955838 -1215549249 1968241711 2015018805 410150211 -470886836 -735256067 -515801292 1548097547 963769145 338297457 1885373079
REM
REM S 3|1.8|5|6|7|30:31:32(qc=5)
REM O 2|1.5|12|13|15|20:21(qc=5)
REM Li 1|1.3|8|9|10|10U:20(qc=5)
REM Fe 3|2.2|2.0|1.0|8|9|10|40:41:32(qc=5)
REM 
CELL 1.54180    4.72137    7.73511    7.73511   39.46759   72.23036   72.23036
LATT -1
SFAC Li O  S  Fe 
Li     1 -0.2334980000000  0.0000000000000  0.0000000000000 1.0  -0.08
Li     1  0.2334980000000  0.0000000000000  0.0000000000000 1.0  -0.08
O      2  0.1070090000000 -0.1070090000000 -0.1070090000000 1.0   0.25
O      2 -0.1070090000000  0.1070090000000  0.1070090000000 1.0   0.25
O      2  0.5000000000000 -0.5000000000000  0.5000000000000 1.0   1.21
S      3 -0.1709160000000 -0.3290840000000 -0.3290840000000 1.0   0.10
S      3  0.1709160000000  0.3290840000000  0.3290840000000 1.0   0.10
Fe     4 -0.5796310000000 -0.0758900000000 -0.3474390000000 1.0   2.66
Fe     4 -0.0029600000000  0.0758900000000  0.3474390000000 1.0   2.66
Fe     4  0.0029600000000 -0.3474390000000 -0.0758900000000 1.0   2.66
Fe     4  0.5796310000000  0.3474390000000  0.0758900000000 1.0   2.66
END
