TITL LFSO-Li3Fe3S4O2-200929-175732-341c05 0.0092 390.114867 -1.05602468E+004 14.2233 14.8480 24 (P3) n - 1
REM
REM Run started: Wed, 30 Sep 2020 03:53:00 +0100 in /lustre/scratch/uccabz1/launch_tmp/launcher_2020-09-29-16-57-30-337487
REM CASTEP 20.1 from code version af48c487+ pr-geom-scf-spinfix Tue Jun 2 15:39:59 2020 +0100
REM Functional Perdew Burke Ernzerhof Relativity Koelling-Harmon Dispersion off
REM Cut-off 340.0000 eV Grid scale 1.7500 Gmax 16.5316 1/A FBSC none
REM MP grid 5 2 2 Offset 0.000 0.000 0.000 No. kpts 10 Spacing 0.07
REM Total runtime: 35885.8 s
REM Overall efficiency: 72.4 %
REM
REM
REM
REM compiler GCC version 4.9.2
REM options -cpp -iprefix /lustre/shared/ucl/apps/gcc/4.9.2/bin/../lib/gcc/x86_64-unknown-linux-gnu/4.9.2/ -mtune=corei7 -march=x86-64 -g -Og
REM COMMAND_LINE
REM seed -1664838912 766415149 -164988470 -95902862 -852641438 -1398117925 -212135390 855951868 -1768686903 42209232 -71499754 -892737369
REM
REM S 3|1.8|5|6|7|30:31:32(qc=5)
REM O 2|1.5|12|13|15|20:21(qc=5)
REM Li 1|1.3|8|9|10|10U:20(qc=5)
REM Fe 3|2.2|2.0|1.0|8|9|10|40:41:32(qc=5)
REM 
CELL 1.54180    2.97518   12.30479   12.30479  120.00000   90.00000   90.00000
LATT -1
SFAC Li O  S  Fe 
Li     1  0.5902310000000  0.5553340000000  0.2265500000000 1.0  -0.02
Li     1  0.5902310000000 -0.3287850000000 -0.5553340000000 1.0  -0.02
Li     1  0.5902310000000 -0.2265500000000  0.3287850000000 1.0  -0.02
Li     1  0.4086190000000 -0.3341700000000 -0.2781150000000 1.0  -0.00
Li     1  0.4086190000000  0.0560550000000  0.3341700000000 1.0  -0.00
Li     1  0.4086190000000  0.2781150000000 -0.0560550000000 1.0  -0.00
O      2 -0.5370090000000 -0.2485750000000 -0.3739150000000 1.0   0.15
O      2 -0.5370090000000 -0.1253400000000  0.2485750000000 1.0   0.15
O      2 -0.5370090000000  0.3739150000000  0.1253400000000 1.0   0.15
O      2  0.0828550000000 -0.3333330000000  0.3333330000000 1.0   0.02
S      3 -0.5078270000000  0.1350590000000  0.5545120000000 1.0  -0.00
S      3 -0.5078270000000  0.4194540000000 -0.1350590000000 1.0  -0.00
S      3 -0.5078270000000 -0.5545120000000 -0.4194540000000 1.0  -0.00
S      3 -0.0870950000000  0.0781690000000 -0.2180720000000 1.0   0.10
S      3 -0.0870950000000 -0.2962410000000 -0.0781690000000 1.0   0.10
S      3 -0.0870950000000  0.2180720000000  0.2962410000000 1.0   0.10
S      3  0.4711570000000  0.3333330000000 -0.3333330000000 1.0   0.00
S      3 -0.0898050000000 -0.0000000000000 -0.0000000000000 1.0   0.05
Fe     4 -0.0363340000000 -0.1420680000000 -0.3022610000000 1.0   2.89
Fe     4 -0.0363340000000 -0.1601930000000  0.1420680000000 1.0   2.89
Fe     4 -0.0363340000000  0.3022610000000  0.1601930000000 1.0   2.89
Fe     4  0.4105170000000  0.0159450000000 -0.1286070000000 1.0   1.61
Fe     4  0.4105170000000 -0.1445520000000 -0.0159450000000 1.0   1.61
Fe     4  0.4105170000000  0.1286070000000  0.1445520000000 1.0   1.61
END
