TITL LFSO-Li4Fe3S3O2-200927-095458-0653ed 0.0005 204.159272 -5.17693009E+003 7.85967 8.19995 12 (Cm) n - 1
REM
REM Run started: Sun, 27 Sep 2020 14:59:30 +0100 in /lustre/scratch/uccabz1/launch_tmp/launcher_2020-09-27-08-54-56-009382
REM CASTEP 20.1 from code version af48c487+ pr-geom-scf-spinfix Tue Jun 2 15:39:59 2020 +0100
REM Functional Perdew Burke Ernzerhof Relativity Koelling-Harmon Dispersion off
REM Cut-off 340.0000 eV Grid scale 1.7500 Gmax 16.5316 1/A FBSC none
REM MP grid 4 4 2 Offset 0.000 0.000 0.000 No. kpts 10 Spacing 0.07
REM Total runtime: 18477.3 s
REM Overall efficiency: 73 %
REM
REM
REM
REM compiler GCC version 4.9.2
REM options -cpp -iprefix /lustre/shared/ucl/apps/gcc/4.9.2/bin/../lib/gcc/x86_64-unknown-linux-gnu/4.9.2/ -mtune=corei7 -march=x86-64 -g -Og
REM COMMAND_LINE
REM seed -472767533 1299075403 202762961 -171927444 -826765167 -657126390 -1621949059 -630152173 489623871 926945277 1735792771 195151153
REM
REM S 3|1.8|5|6|7|30:31:32(qc=5)
REM O 2|1.5|12|13|15|20:21(qc=5)
REM Li 1|1.3|8|9|10|10U:20(qc=5)
REM Fe 3|2.2|2.0|1.0|8|9|10|40:41:32(qc=5)
REM 
CELL 1.54180    4.56617    4.56617   10.01580   81.90953   81.90953   92.91565
LATT -1
SFAC Li O  S  Fe 
Li     1 -0.7403860000000 -0.2408040000000  0.4354860000000 1.0  -0.02
Li     1 -0.2408040000000  0.2596140000000  0.4354860000000 1.0  -0.02
Li     1 -0.1121510000000  0.4716940000000 -0.2512740000000 1.0   0.01
Li     1  0.4716940000000 -0.1121510000000 -0.2512740000000 1.0   0.01
O      2 -0.3255070000000  0.1339800000000 -0.1604720000000 1.0   0.35
O      2  0.1339800000000 -0.3255070000000 -0.1604720000000 1.0   0.35
S      3  0.3096680000000 -0.1562310000000  0.1706130000000 1.0   0.01
S      3 -0.1562310000000  0.3096680000000  0.1706130000000 1.0   0.01
S      3 -0.2710510000000 -0.2710510000000  0.5253040000000 1.0   0.01
Fe     4  0.0551150000000 -0.3085630000000  0.0105140000000 1.0   2.44
Fe     4 -0.3085630000000  0.0551150000000  0.0105140000000 1.0   2.44
Fe     4 -0.6415500000000  0.3584500000000  0.1530610000000 1.0   2.24
END
