TITL LFSO-Li4Fe2S3O2-200911-055153-040d27 0.0141 369.855511 -4.31399235E+003 -5.33334 5.84694 11 (Pm) n - 1
REM
REM Run started: Fri, 11 Sep 2020 12:41:01 +0100 in /lustre/scratch/uccabz1/launch_tmp/launcher_2020-09-11-04-51-51-833605
REM CASTEP 20.1 from code version af48c487+ pr-geom-scf-spinfix Tue Jun 2 15:39:59 2020 +0100
REM Functional Perdew Burke Ernzerhof Relativity Koelling-Harmon Dispersion off
REM Cut-off 340.0000 eV Grid scale 1.7500 Gmax 16.5316 1/A FBSC none
REM MP grid 6 3 1 Offset 0.000 0.000 0.000 No. kpts 9 Spacing 0.07
REM Total runtime: 30180.1 s
REM Overall efficiency: 96.8333 %
REM
REM
REM
REM compiler GCC version 4.9.2
REM options -cpp -iprefix /lustre/shared/ucl/apps/gcc/4.9.2/bin/../lib/gcc/x86_64-unknown-linux-gnu/4.9.2/ -mtune=corei7 -march=x86-64 -g -Og
REM COMMAND_LINE
REM seed 128477662 1951457011 -1136215021 -878816351 -1237772640 -1446111586 1562635815 282810706 1001373739 1079607228 -955915017 -1971411409
REM
REM S 3|1.8|5|6|7|30:31:32(qc=5)
REM O 2|1.5|12|13|15|20:21(qc=5)
REM Li 1|1.3|8|9|10|10U:20(qc=5)
REM Fe 3|2.2|2.0|1.0|8|9|10|40:41:32(qc=5)
REM 
CELL 1.54180    2.88498    6.59384   19.85462   90.00000   90.00000  101.69450
LATT -1
SFAC Li O  S  Fe 
Li     1  0.4066680000000 -0.0088930000000 -0.0929410000000 1.0   0.03
Li     1  0.4066680000000 -0.0088930000000  0.0929410000000 1.0   0.03
Li     1 -0.2148790000000 -0.5719580000000 -0.1773160000000 1.0   0.01
Li     1 -0.2148790000000 -0.5719580000000  0.1773160000000 1.0   0.01
O      2  0.3698470000000 -0.3997060000000 -0.2001180000000 1.0  -0.15
O      2  0.3698470000000 -0.3997060000000  0.2001180000000 1.0  -0.15
S      3 -0.4215360000000  0.0518320000000  0.2149450000000 1.0  -0.06
S      3 -0.4215360000000  0.0518320000000 -0.2149450000000 1.0  -0.06
S      3 -0.0448340000000  0.1031580000000  0.0000000000000 1.0  -0.01
Fe     4 -0.0385710000000 -0.2059360000000  0.2186210000000 1.0  -2.48
Fe     4 -0.0385710000000 -0.2059360000000 -0.2186210000000 1.0  -2.48
END
