TITL LFSO-Li4Fe2S4O-200910-181509-8185c0 -0.0851 451.980921 -8.36005817E+003 -9.40019 9.87464 22 (Pc) n - 1
REM
REM Run started: Fri, 11 Sep 2020 20:46:07 +0100 in /lustre/scratch/uccabz1/launch_tmp/launcher_2020-09-10-17-15-07-350367
REM CASTEP 20.1 from code version af48c487+ pr-geom-scf-spinfix Tue Jun 2 15:39:59 2020 +0100
REM Functional Perdew Burke Ernzerhof Relativity Koelling-Harmon Dispersion off
REM Cut-off 340.0000 eV Grid scale 1.7500 Gmax 16.5316 1/A FBSC none
REM MP grid 4 2 2 Offset 0.000 0.000 0.000 No. kpts 4 Spacing 0.07
REM Total runtime: 101146 s
REM Overall efficiency: 92.9167 %
REM
REM
REM
REM compiler GCC version 4.9.2
REM options -cpp -iprefix /lustre/shared/ucl/apps/gcc/4.9.2/bin/../lib/gcc/x86_64-unknown-linux-gnu/4.9.2/ -mtune=corei7 -march=x86-64 -g -Og
REM COMMAND_LINE
REM seed -1187304851 -1685831247 -1783426992 -1954895748 -1245414778 2029696943 1086446705 243642986 -1064220773 1047226136 -688721138 397743606
REM
REM S 3|1.8|5|6|7|30:31:32(qc=5)
REM O 2|1.5|12|13|15|20:21(qc=5)
REM Li 1|1.3|8|9|10|10U:20(qc=5)
REM Fe 3|2.2|2.0|1.0|8|9|10|40:41:32(qc=5)
REM 
CELL 1.54180    3.87092   10.81640   10.79649   90.00000   90.00000   90.94786
LATT -1
SFAC Li O  S  Fe 
Li     1 -0.2359910000000 -0.0920840000000  0.4204880000000 1.0   0.02
Li     1  0.2640090000000 -0.0920840000000 -0.4204880000000 1.0   0.02
Li     1  0.2534680000000 -0.2743660000000  0.4230010000000 1.0  -0.00
Li     1  0.7534680000000 -0.2743660000000 -0.4230010000000 1.0  -0.00
Li     1  0.2846520000000  0.2360290000000  0.1392830000000 1.0  -0.03
Li     1 -0.2153480000000  0.2360290000000 -0.1392830000000 1.0  -0.03
Li     1  0.2501140000000 -0.3946290000000  0.2236330000000 1.0  -0.01
Li     1 -0.2498860000000 -0.3946290000000 -0.2236330000000 1.0  -0.01
O      2  0.2651580000000 -0.0844040000000  0.3953200000000 1.0  -0.34
O      2 -0.2348420000000 -0.0844040000000 -0.3953200000000 1.0  -0.34
S      3 -0.2361900000000 -0.1729530000000 -0.1136820000000 1.0   0.05
S      3  0.2638100000000 -0.1729530000000  0.1136820000000 1.0   0.05
S      3  0.2633100000000  0.4381510000000  0.0488430000000 1.0   0.00
S      3 -0.2366900000000  0.4381510000000 -0.0488430000000 1.0   0.00
S      3  0.2513260000000 -0.3458250000000 -0.3379760000000 1.0   0.03
S      3 -0.2486740000000 -0.3458250000000  0.3379760000000 1.0   0.03
S      3 -0.2247890000000  0.0976620000000  0.1885420000000 1.0  -0.15
S      3  0.2752110000000  0.0976620000000 -0.1885420000000 1.0  -0.15
Fe     4  0.2679090000000 -0.0796940000000 -0.0767360000000 1.0  -1.29
Fe     4 -0.2320910000000 -0.0796940000000  0.0767360000000 1.0  -1.29
Fe     4 -0.2299950000000 -0.0159600000000 -0.2427630000000 1.0  -2.97
Fe     4  0.2700050000000 -0.0159600000000  0.2427630000000 1.0  -2.97
END
