TITL LFSO-LiFe3S4O-200909-113015-5657ca 0.0307 331.421724 -8.88984843E+003 -9.27692 10.1204 18 (P21) n - 1
REM
REM Run started: Wed, 09 Sep 2020 20:38:07 +0100 in /lustre/scratch/uccabz1/launch_tmp/launcher_2020-09-09-10-30-13-232038
REM CASTEP 20.1 from code version af48c487+ pr-geom-scf-spinfix Tue Jun 2 15:39:59 2020 +0100
REM Functional Perdew Burke Ernzerhof Relativity Koelling-Harmon Dispersion off
REM Cut-off 340.0000 eV Grid scale 1.7500 Gmax 16.5316 1/A FBSC none
REM MP grid 5 2 2 Offset 0.000 0.000 0.000 No. kpts 5 Spacing 0.07
REM Total runtime: 33004 s
REM Overall efficiency: 87 %
REM
REM
REM
REM compiler GCC version 4.9.2
REM options -cpp -iprefix /lustre/shared/ucl/apps/gcc/4.9.2/bin/../lib/gcc/x86_64-unknown-linux-gnu/4.9.2/ -mtune=corei7 -march=x86-64 -g -Og
REM COMMAND_LINE
REM seed 1219698017 1440151158 -1505044528 1714829898 1188431781 1921771781 1909351284 -648757515 1059318683 1740485348 573212110 2100846871
REM
REM S 3|1.8|5|6|7|30:31:32(qc=5)
REM O 2|1.5|12|13|15|20:21(qc=5)
REM Li 1|1.3|8|9|10|10U:20(qc=5)
REM Fe 3|2.2|2.0|1.0|8|9|10|40:41:32(qc=5)
REM 
CELL 1.54180    3.24799    8.98809   11.39109   90.00000   90.00000   94.70635
LATT -1
SFAC Li O  S  Fe 
Li     1 -0.1352520000000  0.1389240000000 -0.1425770000000 1.0  -0.03
Li     1  0.1352520000000 -0.1389240000000  0.3574230000000 1.0  -0.03
O      2  0.3476610000000  0.0358300000000  0.4085570000000 1.0  -0.43
O      2 -0.3476610000000 -0.0358300000000 -0.0914430000000 1.0  -0.43
S      3  0.3936970000000  0.3675920000000 -0.1898990000000 1.0  -0.09
S      3 -0.3936970000000 -0.3675920000000  0.3101010000000 1.0  -0.09
S      3 -0.0878510000000  0.3143990000000  0.3087280000000 1.0   0.03
S      3  0.0878510000000 -0.3143990000000 -0.1912720000000 1.0   0.03
S      3 -0.1182830000000  0.2710720000000 -0.4378580000000 1.0   0.03
S      3  0.1182830000000 -0.2710720000000  0.0621420000000 1.0   0.03
S      3  0.4337110000000 -0.4053000000000 -0.4325850000000 1.0  -0.01
S      3 -0.4337110000000  0.4053000000000  0.0674150000000 1.0  -0.01
Fe     4  0.3693570000000  0.2223360000000  0.4269950000000 1.0  -1.45
Fe     4 -0.3693570000000 -0.2223360000000 -0.0730050000000 1.0  -1.45
Fe     4  0.1153370000000  0.5190230000000 -0.0441500000000 1.0  -1.33
Fe     4 -0.1153370000000 -0.5190230000000  0.4558500000000 1.0  -1.33
Fe     4 -0.0346440000000 -0.5241680000000 -0.3064300000000 1.0  -1.36
Fe     4  0.0346440000000  0.5241680000000  0.1935700000000 1.0  -1.36
END
