TITL LFSO-Li2Fe2SO3-200913-105014-f8f4cd -0.0262 224.683953 -7.48809069E+003 9.91539 16.1789 16 (P3) n - 1
REM
REM Run started: Sun, 13 Sep 2020 14:15:23 +0100 in /lustre/scratch/uccabz1/launch_tmp/launcher_2020-09-13-09-50-13-309468
REM CASTEP 20.1 from code version af48c487+ pr-geom-scf-spinfix Tue Jun 2 15:39:59 2020 +0100
REM Functional Perdew Burke Ernzerhof Relativity Koelling-Harmon Dispersion off
REM Cut-off 340.0000 eV Grid scale 1.7500 Gmax 16.5316 1/A FBSC none
REM MP grid 3 3 2 Offset 0.000 0.000 0.000 No. kpts 5 Spacing 0.07
REM Total runtime: 16661 s
REM Overall efficiency: 86.6667 %
REM
REM
REM
REM compiler GCC version 4.9.2
REM options -cpp -iprefix /lustre/shared/ucl/apps/gcc/4.9.2/bin/../lib/gcc/x86_64-unknown-linux-gnu/4.9.2/ -mtune=corei7 -march=x86-64 -g -Og
REM COMMAND_LINE
REM seed -1058314488 -782327903 -909621364 -782490971 -1789121299 -1936927408 1938203181 1639187064 -532418416 1766252046 1527520887 156884736
REM
REM S 3|1.8|5|6|7|30:31:32(qc=5)
REM O 2|1.5|12|13|15|20:21(qc=5)
REM Li 1|1.3|8|9|10|10U:20(qc=5)
REM Fe 3|2.2|2.0|1.0|8|9|10|40:41:32(qc=5)
REM 
CELL 1.54180    5.65848    5.65848    8.10294   90.00000   90.00000  120.00000
LATT -1
SFAC Li O  S  Fe 
Li     1 -0.0476880000000 -0.4487180000000 -0.4222320000000 1.0   0.01
Li     1  0.4487180000000  0.4010300000000 -0.4222320000000 1.0   0.01
Li     1 -0.4010300000000  0.0476880000000 -0.4222320000000 1.0   0.01
Li     1  0.3333330000000 -0.3333330000000 -0.0028820000000 1.0  -0.05
O      2 -0.3658840000000 -0.0463310000000  0.1385480000000 1.0   0.43
O      2  0.0463310000000 -0.3195530000000  0.1385480000000 1.0   0.43
O      2  0.3195530000000  0.3658840000000  0.1385480000000 1.0   0.43
O      2 -0.0497780000000  0.2866030000000  0.4340320000000 1.0   0.03
O      2 -0.2866030000000 -0.3363810000000  0.4340320000000 1.0   0.03
O      2  0.3363810000000  0.0497780000000  0.4340320000000 1.0   0.03
S      3  0.0000000000000 -0.0000000000000 -0.2525260000000 1.0  -0.12
S      3 -0.3333330000000  0.3333330000000 -0.1914370000000 1.0   0.42
Fe     4 -0.3020660000000 -0.3578450000000  0.2032120000000 1.0   3.72
Fe     4  0.3578450000000  0.0557790000000  0.2032120000000 1.0   3.72
Fe     4 -0.0557790000000  0.3020660000000  0.2032120000000 1.0   3.72
Fe     4  0.0000000000000 -0.0000000000000  0.4871210000000 1.0  -2.89
END
