TITL LFSO-Li2Fe2SO3-200913-092151-6620f4 0.0849 408.414340 -1.12224554E+004 -13.0802 13.9278 24 (Cm) n - 1
REM
REM Run started: Tue, 15 Sep 2020 05:57:32 +0100 in /lustre/scratch/uccabz1/launch_tmp/launcher_2020-09-14-06-57-07-988166
REM CASTEP 20.1 from code version af48c487+ pr-geom-scf-spinfix Tue Jun 2 15:39:59 2020 +0100
REM Functional Perdew Burke Ernzerhof Relativity Koelling-Harmon Dispersion off
REM Cut-off 340.0000 eV Grid scale 1.7500 Gmax 16.5316 1/A FBSC none
REM MP grid 3 3 2 Offset 0.000 0.000 0.000 No. kpts 6 Spacing 0.07
REM Total runtime: 163816 s
REM Overall efficiency: 97.1538 %
REM
REM
REM
REM compiler GCC version 4.9.2
REM options -cpp -iprefix /lustre/shared/ucl/apps/gcc/4.9.2/bin/../lib/gcc/x86_64-unknown-linux-gnu/4.9.2/ -mtune=corei7 -march=x86-64 -g -Og
REM COMMAND_LINE
REM seed -463150305 240963209 1421761921 -1414951824 1664480646 -1333804303 283051145 -1433251746 1835107953 1549647202 756809057 442804040
REM
REM S 3|1.8|5|6|7|30:31:32(qc=5)
REM O 2|1.5|12|13|15|20:21(qc=5)
REM Li 1|1.3|8|9|10|10U:20(qc=5)
REM Fe 3|2.2|2.0|1.0|8|9|10|40:41:32(qc=5)
REM 
CELL 1.54180    5.67225    6.33264   12.76150   92.15035   94.80594   63.39374
LATT -1
SFAC Li O  S  Fe 
Li     1 -0.3275880000000  0.3587970000000 -0.0483640000000 1.0   0.03
Li     1  0.0312080000000 -0.3587970000000 -0.0483640000000 1.0   0.03
Li     1 -0.3999520000000 -0.2339390000000  0.2874240000000 1.0   0.08
Li     1  0.3661090000000  0.2339390000000  0.2874240000000 1.0   0.08
Li     1  0.2749670000000  0.2431720000000  0.0532540000000 1.0   0.03
Li     1  0.5181400000000 -0.2431720000000  0.0532540000000 1.0   0.03
O      2 -0.0843890000000  0.3064400000000 -0.3799190000000 1.0   0.04
O      2  0.2220520000000 -0.3064400000000 -0.3799190000000 1.0   0.04
O      2 -0.3298640000000  0.2608820000000  0.2646110000000 1.0  -0.16
O      2 -0.0689810000000 -0.2608820000000  0.2646110000000 1.0  -0.16
O      2 -0.2908340000000 -0.3642530000000 -0.0533850000000 1.0  -0.06
O      2  0.3449120000000  0.3642530000000 -0.0533850000000 1.0  -0.06
O      2  0.5236860000000 -0.3647570000000  0.3987960000000 1.0  -0.36
O      2  0.1589300000000  0.3647570000000  0.3987960000000 1.0  -0.36
O      2 -0.3721870000000  0.0000000000000 -0.3762600000000 1.0   0.07
S      3  0.3662910000000 -0.4176120000000 -0.2772490000000 1.0   0.04
S      3 -0.0513210000000  0.4176120000000 -0.2772490000000 1.0   0.04
S      3 -0.4536860000000  0.0000000000000 -0.2675890000000 1.0   0.06
Fe     4  0.1947020000000 -0.3626310000000  0.3771070000000 1.0  -3.43
Fe     4 -0.1679300000000  0.3626310000000  0.3771070000000 1.0  -3.43
Fe     4 -0.3555910000000 -0.3304360000000 -0.1971570000000 1.0  -0.45
Fe     4  0.3139730000000  0.3304360000000 -0.1971570000000 1.0  -0.45
Fe     4 -0.0800000000000  0.1757550000000  0.1759680000000 1.0  -2.37
Fe     4  0.0957550000000 -0.1757550000000  0.1759680000000 1.0  -2.37
END
