TITL LFSO-Li4FeS2O-200910-112700-9d0353 0.1221 525.961899 -8.12720784E+003 12.0000 12.4754 24 (P32) n - 1
REM
REM Run started: Thu, 10 Sep 2020 23:35:54 +0100 in /lustre/scratch/uccabz1/launch_tmp/launcher_2020-09-10-10-26-58-508716
REM CASTEP 20.1 from code version af48c487+ pr-geom-scf-spinfix Tue Jun 2 15:39:59 2020 +0100
REM Functional Perdew Burke Ernzerhof Relativity Koelling-Harmon Dispersion off
REM Cut-off 340.0000 eV Grid scale 1.7500 Gmax 16.5316 1/A FBSC none
REM MP grid 3 3 1 Offset 0.000 0.000 0.000 No. kpts 3 Spacing 0.07
REM Total runtime: 48850.9 s
REM Overall efficiency: 90.1667 %
REM
REM
REM
REM compiler GCC version 4.9.2
REM options -cpp -iprefix /lustre/shared/ucl/apps/gcc/4.9.2/bin/../lib/gcc/x86_64-unknown-linux-gnu/4.9.2/ -mtune=corei7 -march=x86-64 -g -Og
REM COMMAND_LINE
REM seed 1510139698 1175795835 -626393641 -1356317325 567092776 526228080 -355698050 -1252323185 657065022 1388164024 915390523 1223387689
REM
REM S 3|1.8|5|6|7|30:31:32(qc=5)
REM O 2|1.5|12|13|15|20:21(qc=5)
REM Li 1|1.3|8|9|10|10U:20(qc=5)
REM Fe 3|2.2|2.0|1.0|8|9|10|40:41:32(qc=5)
REM 
CELL 1.54180    6.38599    6.38599   14.89248   90.00000   90.00000  120.00000
LATT -1
SFAC Li O  S  Fe 
Li     1  0.1468290000000 -0.0166690000000  0.0692070000000 1.0  -0.01
Li     1  0.0166690000000  0.1634980000000 -0.2641260000000 1.0  -0.01
Li     1 -0.1634980000000 -0.1468290000000  0.4025400000000 1.0  -0.01
Li     1  0.1354360000000  0.3386500000000  0.3868520000000 1.0  -0.01
Li     1 -0.3386500000000 -0.2032150000000  0.0535190000000 1.0  -0.01
Li     1  0.2032150000000 -0.1354360000000 -0.2798150000000 1.0  -0.01
Li     1  0.3949610000000  0.5218250000000 -0.2012480000000 1.0   0.03
Li     1 -0.5218250000000 -0.1268640000000  0.4654190000000 1.0   0.03
Li     1  0.1268640000000 -0.3949610000000  0.1320860000000 1.0   0.03
Li     1 -0.4647310000000  0.0071900000000  0.2970410000000 1.0  -0.00
Li     1 -0.0071900000000  0.5280790000000 -0.0362920000000 1.0  -0.00
Li     1 -0.5280790000000  0.4647310000000 -0.3696260000000 1.0  -0.00
O      2 -0.1064320000000 -0.3413850000000  0.0616440000000 1.0   0.20
O      2  0.3413850000000  0.2349520000000 -0.2716890000000 1.0   0.20
O      2 -0.2349520000000  0.1064320000000  0.3949770000000 1.0   0.20
S      3 -0.4966700000000 -0.5110260000000 -0.5279880000000 1.0   0.15
S      3  0.5110260000000  0.0143560000000  0.1386790000000 1.0   0.15
S      3 -0.0143560000000  0.4966700000000 -0.1946540000000 1.0   0.15
S      3 -0.4008900000000 -0.1195340000000 -0.2985310000000 1.0   0.20
S      3  0.1195340000000 -0.2813560000000  0.3681350000000 1.0   0.20
S      3  0.2813560000000  0.4008900000000  0.0348020000000 1.0   0.20
Fe     4 -0.2303310000000  0.3945970000000  0.4188160000000 1.0   3.45
Fe     4 -0.3945970000000  0.3750720000000  0.0854830000000 1.0   3.45
Fe     4 -0.3750720000000  0.2303310000000 -0.2478510000000 1.0   3.45
END
