TITL LFSO-Li2Fe2S3O-200913-035025-ad3bd4 0.0454 391.386282 -1.04288094E+004 -17.0868 17.8992 24 (P3) n - 1
REM
REM Run started: Sun, 13 Sep 2020 23:41:53 +0100 in /lustre/scratch/uccabz1/launch_tmp/launcher_2020-09-13-22-11-35-849684
REM CASTEP 20.1 from code version af48c487+ pr-geom-scf-spinfix Tue Jun 2 15:39:59 2020 +0100
REM Functional Perdew Burke Ernzerhof Relativity Koelling-Harmon Dispersion off
REM Cut-off 340.0000 eV Grid scale 1.7500 Gmax 16.5316 1/A FBSC none
REM MP grid 3 3 2 Offset 0.000 0.000 0.000 No. kpts 5 Spacing 0.07
REM Total runtime: 73235.8 s
REM Overall efficiency: 74.6364 %
REM
REM
REM
REM compiler GCC version 4.9.2
REM options -cpp -iprefix /lustre/shared/ucl/apps/gcc/4.9.2/bin/../lib/gcc/x86_64-unknown-linux-gnu/4.9.2/ -mtune=corei7 -march=x86-64 -g -Og
REM COMMAND_LINE
REM seed -1741073082 -1332981423 -996530688 -375978239 1217628322 -610280630 -85115034 1359541854 -1770634017 2009443569 820656685 624532096
REM
REM S 3|1.8|5|6|7|30:31:32(qc=5)
REM O 2|1.5|12|13|15|20:21(qc=5)
REM Li 1|1.3|8|9|10|10U:20(qc=5)
REM Fe 3|2.2|2.0|1.0|8|9|10|40:41:32(qc=5)
REM 
CELL 1.54180    6.00428    6.00428   12.53585   90.00000   90.00000  120.00000
LATT -1
SFAC Li O  S  Fe 
Li     1  0.3392890000000 -0.0013230000000  0.0810350000000 1.0   0.00
Li     1  0.6593870000000 -0.3392890000000  0.0810350000000 1.0   0.00
Li     1  0.0013230000000 -0.6593870000000  0.0810350000000 1.0   0.00
Li     1 -0.3494720000000 -0.0342880000000  0.4861200000000 1.0  -0.07
Li     1  0.3151840000000  0.3494720000000  0.4861200000000 1.0  -0.07
Li     1  0.0342880000000 -0.3151840000000  0.4861200000000 1.0  -0.07
O      2  0.3309540000000  0.3343590000000  0.1246870000000 1.0  -0.38
O      2  0.0034050000000 -0.3309540000000  0.1246870000000 1.0  -0.38
O      2 -0.3343590000000 -0.0034050000000  0.1246870000000 1.0  -0.38
S      3 -0.0002630000000  0.4964830000000 -0.3435640000000 1.0  -0.02
S      3 -0.5032540000000  0.0002630000000 -0.3435640000000 1.0  -0.02
S      3 -0.4964830000000  0.5032540000000 -0.3435640000000 1.0  -0.02
S      3 -0.0016320000000  0.3540320000000  0.3598580000000 1.0  -0.05
S      3  0.3556640000000  0.0016320000000  0.3598580000000 1.0  -0.05
S      3 -0.3540320000000 -0.3556640000000  0.3598580000000 1.0  -0.05
S      3 -0.1608850000000  0.1697830000000 -0.1236790000000 1.0  -0.06
S      3  0.3306670000000  0.1608850000000 -0.1236790000000 1.0  -0.06
S      3 -0.1697830000000 -0.3306670000000 -0.1236790000000 1.0  -0.06
Fe     4  0.1384010000000 -0.1457840000000 -0.2444660000000 1.0  -2.14
Fe     4 -0.2841850000000 -0.1384010000000 -0.2444660000000 1.0  -2.14
Fe     4  0.1457840000000  0.2841850000000 -0.2444660000000 1.0  -2.14
Fe     4 -0.2595020000000 -0.0005950000000  0.2601260000000 1.0  -2.98
Fe     4  0.2589070000000  0.2595020000000  0.2601260000000 1.0  -2.98
Fe     4  0.0005950000000 -0.2589070000000  0.2601260000000 1.0  -2.98
END
