TITL LFSO-LiFeSO-200909-042425-92fc9c 0.2951 608.474096 -1.08284247E+004 19.8901 20.7093 24 (R3) n - 1
REM
REM Run started: Thu, 10 Sep 2020 17:53:04 +0100 in /lustre/scratch/uccabz1/launch_tmp/launcher_2020-09-10-15-51-54-671857
REM CASTEP 20.1 from code version af48c487+ pr-geom-scf-spinfix Tue Jun 2 15:39:59 2020 +0100
REM Functional Perdew Burke Ernzerhof Relativity Koelling-Harmon Dispersion off
REM Cut-off 340.0000 eV Grid scale 1.7500 Gmax 16.5316 1/A FBSC none
REM MP grid 2 2 3 Offset 0.000 0.000 0.000 No. kpts 6 Spacing 0.07
REM Total runtime: 105562 s
REM Overall efficiency: 98.8333 %
REM
REM
REM
REM compiler GCC version 4.9.2
REM options -cpp -iprefix /lustre/shared/ucl/apps/gcc/4.9.2/bin/../lib/gcc/x86_64-unknown-linux-gnu/4.9.2/ -mtune=corei7 -march=x86-64 -g -Og
REM COMMAND_LINE
REM seed 368190557 1126474906 442951199 -1598238692 1084512500 -1956028239 560046852 667474870 -205311625 645413550 -1810585610 -651860358
REM
REM S 3|1.8|5|6|7|30:31:32(qc=5)
REM O 2|1.5|12|13|15|20:21(qc=5)
REM Li 1|1.3|8|9|10|10U:20(qc=5)
REM Fe 3|2.2|2.0|1.0|8|9|10|40:41:32(qc=5)
REM 
CELL 1.54180   10.16981   10.16981    8.97915   55.50726   55.50726   60.00000
LATT -1
SFAC Li O  S  Fe 
Li     1 -0.0591850000000 -0.1155060000000 -0.3273860000000 1.0   0.03
Li     1 -0.1155060000000  0.5020770000000 -0.3273860000000 1.0   0.03
Li     1  0.5020770000000 -0.0591850000000 -0.3273860000000 1.0   0.03
Li     1 -0.0364910000000  0.3434920000000  0.1087240000000 1.0  -0.00
Li     1  0.3434920000000 -0.4157240000000  0.1087240000000 1.0  -0.00
Li     1 -0.4157240000000 -0.0364910000000  0.1087240000000 1.0  -0.00
O      2  0.0686160000000  0.0158060000000  0.5913650000000 1.0   0.21
O      2  0.0158060000000  0.3242140000000  0.5913650000000 1.0   0.21
O      2  0.3242140000000  0.0686160000000  0.5913650000000 1.0   0.21
O      2  0.2666690000000 -0.5290050000000  0.3785550000000 1.0   0.49
O      2 -0.5290050000000 -0.1162190000000  0.3785550000000 1.0   0.49
O      2 -0.1162190000000  0.2666690000000  0.3785550000000 1.0   0.49
S      3  0.2598870000000  0.2482790000000 -0.1792270000000 1.0   0.11
S      3  0.2482790000000 -0.3289380000000 -0.1792270000000 1.0   0.11
S      3 -0.3289380000000  0.2598870000000 -0.1792270000000 1.0   0.11
S      3 -0.3636330000000 -0.0354820000000 -0.1948070000000 1.0   0.21
S      3 -0.0354820000000 -0.4060770000000 -0.1948070000000 1.0   0.21
S      3 -0.4060770000000 -0.3636330000000 -0.1948070000000 1.0   0.21
Fe     4  0.2262840000000  0.2862610000000  0.5526130000000 1.0   2.83
Fe     4  0.2862610000000 -0.0651570000000  0.5526130000000 1.0   2.83
Fe     4 -0.0651570000000  0.2262840000000  0.5526130000000 1.0   2.83
Fe     4  0.2169000000000 -0.4979230000000 -0.2301140000000 1.0   2.77
Fe     4 -0.4979230000000  0.5111380000000 -0.2301140000000 1.0   2.77
Fe     4  0.5111380000000  0.2169000000000 -0.2301140000000 1.0   2.77
END
