TITL LFSO-Li4Fe3S2O3-200928-061159-398d13 0.1410 989.121442 -10619.12728569 -19.9776 20.7969 24 (Cmm2) n - 1
REM
REM Run started: Wed, 30 Sep 2020 06:48:04 +0100 in /scratch/scratch/uccabz1/launch_tmp/launcher_2020-09-30-05-11-11-400643
REM CASTEP 19.11| from code version Version unavailable
REM Functional Perdew Burke Ernzerhof Relativity Koelling-Harmon Dispersion off
REM Cut-off 340.0000 eV Grid scale 1.7500 Gmax 16.5316 1/A FBSC none
REM MP grid 3 2 1 Offset 0.000 0.000 0.000 No. kpts 2 Spacing 0.07
REM Total runtime: 135050 s
REM Overall efficiency: 90.3636 %
REM
REM
REM
REM compiler GCC version 4.9.2
REM options -cpp -iprefix /scratch/UCL/applications/gcc/4.9.2/bin/../lib/gcc/x86_64-unknown-linux-gnu/4.9.2/ -mtune=corei7 -march=x86-64 -g -O2
REM COMMAND_LINE
REM seed -1544720957 656652152 425285642 -812175275 281796566 1800032400 -1202394386 1473970767 595348982 -2007276403 102748869 1706016073
REM
REM S 3|1.8|5|6|7|30:31:32(qc=5)
REM O 2|1.5|12|13|15|20:21(qc=5)
REM Li 1|1.3|8|9|10|10U:20(qc=5)
REM Fe 3|2.2|2.0|1.0|8|9|10|40:41:32(qc=5)
REM 
CELL 1.54180    5.52952    9.76938   18.95065  104.93709   90.00000   90.00000
LATT -1
SFAC Li O  S  Fe 
Li     1  0.2824750000000 -0.0767670000000  0.3035490000000 1.0   0.01
Li     1  0.2824750000000  0.0767680000000 -0.3035470000000 1.0   0.01
Li     1  0.2824750000000  0.3803170000000  0.3035490000000 1.0   0.01
Li     1  0.2824750000000 -0.3803160000000 -0.3035470000000 1.0   0.01
Li     1 -0.5496630000000  0.2277400000000  0.1653770000000 1.0   0.00
Li     1 -0.5496630000000 -0.2277390000000 -0.1653750000000 1.0   0.00
Li     1 -0.5496630000000 -0.0623630000000  0.1653770000000 1.0   0.00
Li     1 -0.5496630000000  0.0623640000000 -0.1653750000000 1.0   0.00
O      2  0.1855030000000 -0.0964220000000  0.2097870000000 1.0  -0.28
O      2  0.1855030000000  0.0964230000000 -0.2097850000000 1.0  -0.28
O      2  0.1855030000000  0.3062090000000  0.2097870000000 1.0  -0.28
O      2  0.1855030000000 -0.3062080000000 -0.2097850000000 1.0  -0.28
O      2  0.6756780000000  0.0857530000000  0.1715050000000 1.0  -0.25
O      2  0.6756780000000 -0.0857520000000 -0.1715030000000 1.0  -0.25
S      3 -0.2733300000000  0.3833800000000  0.3223300000000 1.0  -0.09
S      3 -0.2733300000000 -0.3833790000000 -0.3223280000000 1.0  -0.09
S      3 -0.2733300000000 -0.0610500000000  0.3223300000000 1.0  -0.09
S      3 -0.2733300000000  0.0610510000000 -0.3223280000000 1.0  -0.09
Fe     4 -0.1001320000000  0.2311890000000  0.2218300000000 1.0  -2.94
Fe     4 -0.1001320000000 -0.2311880000000 -0.2218280000000 1.0  -2.94
Fe     4 -0.1001320000000 -0.0093600000000  0.2218300000000 1.0  -2.94
Fe     4 -0.1001320000000  0.0093610000000 -0.2218280000000 1.0  -2.94
Fe     4 -0.2313420000000 -0.1664810000000 -0.3329630000000 1.0  -3.15
Fe     4 -0.2313420000000  0.1664820000000  0.3329650000000 1.0  -3.15
END
