TITL LFSO-Li4FeSO2-200910-073416-ef9e46 -0.0444 127.850167 -2.83901602E+003 4.04450 4.09533 8 (R3) n - 1
REM
REM Run started: Thu, 10 Sep 2020 07:56:13 +0100 in /lustre/scratch/uccabz1/launch_tmp/launcher_2020-09-10-06-34-14-263123
REM CASTEP 20.1 from code version af48c487+ pr-geom-scf-spinfix Tue Jun 2 15:39:59 2020 +0100
REM Functional Perdew Burke Ernzerhof Relativity Koelling-Harmon Dispersion off
REM Cut-off 340.0000 eV Grid scale 1.7500 Gmax 16.5316 1/A FBSC none
REM MP grid 4 4 4 Offset 0.000 0.000 0.000 No. kpts 12 Spacing 0.07
REM Total runtime: 2387.73 s
REM Overall efficiency: 93.6 %
REM
REM
REM
REM compiler GCC version 4.9.2
REM options -cpp -iprefix /lustre/shared/ucl/apps/gcc/4.9.2/bin/../lib/gcc/x86_64-unknown-linux-gnu/4.9.2/ -mtune=corei7 -march=x86-64 -g -Og
REM COMMAND_LINE
REM seed -1270513187 -611093084 1296330631 2109373306 -1094952901 1332636599 -904956146 -542219122 153998783 2052387371 -634349931 -520721924
REM
REM S 3|1.8|5|6|7|30:31:32(qc=5)
REM O 2|1.5|12|13|15|20:21(qc=5)
REM Li 1|1.3|8|9|10|10U:20(qc=5)
REM Fe 3|2.2|2.0|1.0|8|9|10|40:41:32(qc=5)
REM 
CELL 1.54180    6.85022    6.85022    6.85022   41.55831   41.55831   41.55831
LATT -1
SFAC Li O  S  Fe 
Li     1 -0.1034180000000 -0.5580790000000  0.4009940000000 1.0  -0.01
Li     1 -0.5580790000000  0.4009940000000 -0.1034180000000 1.0  -0.01
Li     1  0.4009940000000 -0.1034180000000 -0.5580790000000 1.0  -0.01
Li     1 -0.1793060000000 -0.1793060000000 -0.1793060000000 1.0  -0.07
O      2  0.1930380000000  0.1930380000000  0.1930380000000 1.0   0.23
O      2  0.5191730000000  0.5191730000000  0.5191730000000 1.0   0.11
S      3 -0.3029060000000 -0.3029060000000 -0.3029060000000 1.0   0.07
Fe     4  0.0956610000000  0.0956610000000  0.0956610000000 1.0   3.71
END
