TITL LFSO-Li5FeS2O2-200921-005652-7174a0 -0.0863 395.282502 -6.69163383E+003 6.12671 6.54835 20 (R3) n - 1
REM
REM Run started: Tue, 22 Sep 2020 03:00:38 +0100 in /lustre/scratch/uccabz1/launch_tmp/launcher_2020-09-22-01-15-48-193246
REM CASTEP 20.1 from code version af48c487+ pr-geom-scf-spinfix Tue Jun 2 15:39:59 2020 +0100
REM Functional Perdew Burke Ernzerhof Relativity Koelling-Harmon Dispersion off
REM Cut-off 340.0000 eV Grid scale 1.7500 Gmax 16.5316 1/A FBSC none
REM MP grid 3 3 3 Offset 0.000 0.000 0.000 No. kpts 6 Spacing 0.07
REM Total runtime: 57443.9 s
REM Overall efficiency: 95.6364 %
REM
REM
REM
REM compiler GCC version 4.9.2
REM options -cpp -iprefix /lustre/shared/ucl/apps/gcc/4.9.2/bin/../lib/gcc/x86_64-unknown-linux-gnu/4.9.2/ -mtune=corei7 -march=x86-64 -g -Og
REM COMMAND_LINE
REM seed -110172454 -1715788805 -1166693999 1632519587 -1939269483 213397819 -1589554390 -1376230246 195193658 -599351332 1067521376 1337491442
REM
REM S 3|1.8|5|6|7|30:31:32(qc=5)
REM O 2|1.5|12|13|15|20:21(qc=5)
REM Li 1|1.3|8|9|10|10U:20(qc=5)
REM Fe 3|2.2|2.0|1.0|8|9|10|40:41:32(qc=5)
REM 
CELL 1.54180   11.63900   11.63900   11.63900   32.08379   32.08379   32.08379
LATT -1
SFAC Li O  S  Fe 
Li     1 -0.4277160000000  0.5680480000000  0.0366860000000 1.0   0.00
Li     1  0.5680480000000  0.0366860000000 -0.4277160000000 1.0   0.00
Li     1  0.0366860000000 -0.4277160000000  0.5680480000000 1.0   0.00
Li     1 -0.3737980000000 -0.3081210000000  0.0952790000000 1.0  -0.02
Li     1 -0.3081210000000  0.0952790000000 -0.3737980000000 1.0  -0.02
Li     1  0.0952790000000 -0.3737980000000 -0.3081210000000 1.0  -0.02
Li     1 -0.1010460000000  0.3554130000000  0.5830430000000 1.0  -0.00
Li     1  0.3554130000000  0.5830430000000 -0.1010460000000 1.0  -0.00
Li     1  0.5830430000000 -0.1010460000000  0.3554130000000 1.0  -0.00
Li     1 -0.0926140000000 -0.0926140000000 -0.0926140000000 1.0   0.11
O      2 -0.4643230000000  0.0358740000000  0.4317200000000 1.0   0.12
O      2  0.0358740000000  0.4317200000000 -0.4643230000000 1.0   0.12
O      2  0.4317200000000 -0.4643230000000  0.0358740000000 1.0   0.12
O      2 -0.2298960000000 -0.2298960000000 -0.2298960000000 1.0   0.00
S      3 -0.1184320000000 -0.4390140000000  0.2481790000000 1.0   0.16
S      3 -0.4390140000000  0.2481790000000 -0.1184320000000 1.0   0.16
S      3  0.2481790000000 -0.1184320000000 -0.4390140000000 1.0   0.16
S      3  0.4357400000000  0.4357400000000  0.4357400000000 1.0   0.01
Fe     4  0.2248080000000  0.2248080000000  0.2248080000000 1.0   3.26
Fe     4  0.3319610000000  0.3319610000000  0.3319610000000 1.0   1.96
END
