TITL LFSO-Li4FeSO2-200910-073606-39d4f7 -0.0610 184.031630 -2.84186595E+003 3.62205 3.71519 8 (P2) n - 1
REM
REM Run started: Thu, 10 Sep 2020 10:42:06 +0100 in /lustre/scratch/uccabz1/launch_tmp/launcher_2020-09-10-06-36-04-166421
REM CASTEP 20.1 from code version af48c487+ pr-geom-scf-spinfix Tue Jun 2 15:39:59 2020 +0100
REM Functional Perdew Burke Ernzerhof Relativity Koelling-Harmon Dispersion off
REM Cut-off 340.0000 eV Grid scale 1.7500 Gmax 16.5316 1/A FBSC none
REM MP grid 5 5 1 Offset 0.000 0.000 0.000 No. kpts 9 Spacing 0.07
REM Total runtime: 12996.4 s
REM Overall efficiency: 94.1538 %
REM
REM
REM
REM compiler GCC version 4.9.2
REM options -cpp -iprefix /lustre/shared/ucl/apps/gcc/4.9.2/bin/../lib/gcc/x86_64-unknown-linux-gnu/4.9.2/ -mtune=corei7 -march=x86-64 -g -Og
REM COMMAND_LINE
REM seed 1511975262 1845730600 -2055623100 -663574579 2022362891 363863059 2127910505 1766936530 -1207194568 278838407 1806912192 1294968151
REM
REM S 3|1.8|5|6|7|30:31:32(qc=5)
REM O 2|1.5|12|13|15|20:21(qc=5)
REM Li 1|1.3|8|9|10|10U:20(qc=5)
REM Fe 3|2.2|2.0|1.0|8|9|10|40:41:32(qc=5)
REM 
CELL 1.54180    3.47178    3.29223   17.79583   90.00000   64.79065   90.00000
LATT -1
SFAC Li O  S  Fe 
Li     1 -0.4797820000000 -0.3550870000000 -0.3705490000000 1.0  -0.01
Li     1  0.4797820000000 -0.3550870000000  0.3705490000000 1.0  -0.01
Li     1 -0.1635450000000  0.1451070000000  0.4571770000000 1.0  -0.00
Li     1  0.1635450000000  0.1451070000000 -0.4571770000000 1.0  -0.00
O      2 -0.4227330000000  0.1476310000000 -0.4166080000000 1.0   0.01
O      2  0.4227330000000  0.1476310000000  0.4166080000000 1.0   0.01
S      3  0.5000000000000  0.3695310000000  0.0000000000000 1.0   0.23
Fe     4 -0.0000000000000 -0.1350040000000  0.0000000000000 1.0   3.39
END
