TITL LFSO-Li2Fe2S2O-200913-122911-8a8f53 0.0537 427.609849 -9.51764716E+003 22.5286 22.8592 21 (R3) n - 1
REM
REM Run started: Mon, 14 Sep 2020 02:34:14 +0100 in /lustre/scratch/uccabz1/launch_tmp/launcher_2020-09-13-11-29-09-733304
REM CASTEP 20.1 from code version af48c487+ pr-geom-scf-spinfix Tue Jun 2 15:39:59 2020 +0100
REM Functional Perdew Burke Ernzerhof Relativity Koelling-Harmon Dispersion off
REM Cut-off 340.0000 eV Grid scale 1.7500 Gmax 16.5316 1/A FBSC none
REM MP grid 3 3 3 Offset 0.000 0.000 0.000 No. kpts 6 Spacing 0.07
REM Total runtime: 50937.3 s
REM Overall efficiency: 98.3636 %
REM
REM
REM
REM compiler GCC version 4.9.2
REM options -cpp -iprefix /lustre/shared/ucl/apps/gcc/4.9.2/bin/../lib/gcc/x86_64-unknown-linux-gnu/4.9.2/ -mtune=corei7 -march=x86-64 -g -Og
REM COMMAND_LINE
REM seed -1026007894 -132818936 -1643218793 -1365166475 -353377043 -1268515768 2039191971 434879142 1286591664 1326069991 -1768274536 1292989875
REM
REM S 3|1.8|5|6|7|30:31:32(qc=5)
REM O 2|1.5|12|13|15|20:21(qc=5)
REM Li 1|1.3|8|9|10|10U:20(qc=5)
REM Fe 3|2.2|2.0|1.0|8|9|10|40:41:32(qc=5)
REM 
CELL 1.54180    8.51070    8.51070    8.51070   59.16607   59.16607   59.16607
LATT -1
SFAC Li O  S  Fe 
Li     1  0.2943380000000 -0.2864020000000  0.4917810000000 1.0  -0.01
Li     1 -0.2864020000000  0.4917810000000  0.2943380000000 1.0  -0.01
Li     1  0.4917810000000  0.2943380000000 -0.2864020000000 1.0  -0.01
Li     1 -0.0898580000000  0.3517360000000 -0.4727130000000 1.0  -0.01
Li     1  0.3517360000000 -0.4727130000000 -0.0898580000000 1.0  -0.01
Li     1 -0.4727130000000 -0.0898580000000  0.3517360000000 1.0  -0.01
O      2 -0.2694370000000  0.2844380000000 -0.4783150000000 1.0   0.35
O      2  0.2844380000000 -0.4783150000000 -0.2694370000000 1.0   0.35
O      2 -0.4783150000000 -0.2694370000000  0.2844380000000 1.0   0.35
S      3 -0.1620380000000 -0.0761710000000  0.3810380000000 1.0   0.20
S      3 -0.0761710000000  0.3810380000000 -0.1620380000000 1.0   0.20
S      3  0.3810380000000 -0.1620380000000 -0.0761710000000 1.0   0.20
S      3  0.1526860000000  0.0163450000000 -0.4331560000000 1.0   0.25
S      3  0.0163450000000 -0.4331560000000  0.1526860000000 1.0   0.25
S      3 -0.4331560000000  0.1526860000000  0.0163450000000 1.0   0.25
Fe     4 -0.1189820000000  0.0352820000000 -0.4489890000000 1.0   3.51
Fe     4  0.0352820000000 -0.4489890000000 -0.1189820000000 1.0   3.51
Fe     4 -0.4489890000000 -0.1189820000000  0.0352820000000 1.0   3.51
Fe     4  0.1264740000000  0.0749320000000 -0.1862150000000 1.0   3.22
Fe     4  0.0749320000000 -0.1862150000000  0.1264740000000 1.0   3.22
Fe     4 -0.1862150000000  0.1264740000000  0.0749320000000 1.0   3.22
END
