TITL LFSO-LiFe3S3O2-200909-122218-039c79 -0.0574 267.952321 -9.15593717E+003 13.2877 15.9398 18 (P42) n - 1
REM
REM Run started: Wed, 09 Sep 2020 16:31:04 +0100 in /lustre/scratch/uccabz1/launch_tmp/launcher_2020-09-09-11-22-16-292112
REM CASTEP 20.1 from code version af48c487+ pr-geom-scf-spinfix Tue Jun 2 15:39:59 2020 +0100
REM Functional Perdew Burke Ernzerhof Relativity Koelling-Harmon Dispersion off
REM Cut-off 340.0000 eV Grid scale 1.7500 Gmax 16.5316 1/A FBSC none
REM MP grid 3 2 2 Offset 0.000 0.000 0.000 No. kpts 2 Spacing 0.07
REM Total runtime: 15134.3 s
REM Overall efficiency: 85.6667 %
REM
REM
REM
REM compiler GCC version 4.9.2
REM options -cpp -iprefix /lustre/shared/ucl/apps/gcc/4.9.2/bin/../lib/gcc/x86_64-unknown-linux-gnu/4.9.2/ -mtune=corei7 -march=x86-64 -g -Og
REM COMMAND_LINE
REM seed 1253675644 869091497 -139309123 1421761921 1038368542 -973742138 1382130538 -898863810 -182970058 -452919575 -142311352 1013752544
REM
REM S 3|1.8|5|6|7|30:31:32(qc=5)
REM O 2|1.5|12|13|15|20:21(qc=5)
REM Li 1|1.3|8|9|10|10U:20(qc=5)
REM Fe 3|2.2|2.0|1.0|8|9|10|40:41:32(qc=5)
REM 
CELL 1.54180    5.14152    7.21910    7.21910   90.00000   90.00000   90.00000
LATT -1
SFAC Li O  S  Fe 
Li     1  0.0795290000000 -0.5000000000000  0.0000000000000 1.0  -0.02
Li     1 -0.4204710000000  0.0000000000000 -0.5000000000000 1.0  -0.02
O      2  0.0173830000000  0.4298700000000 -0.2753130000000 1.0   0.37
O      2  0.0173830000000 -0.4298700000000  0.2753130000000 1.0   0.37
O      2 -0.4826170000000 -0.2753130000000 -0.4298700000000 1.0   0.37
O      2 -0.4826170000000  0.2753130000000  0.4298700000000 1.0   0.37
S      3 -0.0152320000000 -0.1427840000000 -0.1886720000000 1.0  -0.02
S      3 -0.0152320000000  0.1427840000000  0.1886720000000 1.0  -0.02
S      3  0.4847680000000 -0.1886720000000  0.1427840000000 1.0  -0.02
S      3  0.4847680000000  0.1886720000000 -0.1427840000000 1.0  -0.02
S      3  0.0445940000000  0.0000000000000  0.5000000000000 1.0   0.13
S      3  0.5445940000000  0.5000000000000  0.0000000000000 1.0   0.13
Fe     4  0.2513610000000 -0.2803470000000  0.4016800000000 1.0   3.19
Fe     4  0.2513610000000  0.2803470000000 -0.4016800000000 1.0   3.19
Fe     4 -0.2486390000000  0.4016800000000  0.2803470000000 1.0   3.19
Fe     4 -0.2486390000000 -0.4016800000000 -0.2803470000000 1.0   3.19
Fe     4  0.2319500000000  0.0000000000000  0.0000000000000 1.0  -0.54
Fe     4 -0.2680500000000  0.0000000000000  0.0000000000000 1.0  -0.54
END
