TITL LFSO-Li4Fe3S4O-200926-191503-af1d7f 0.0067 440.740389 -1.00863990E+004 19.4695 20.0250 24 (Aea2) n - 1
REM
REM Run started: Sun, 27 Sep 2020 03:52:49 +0100 in /lustre/scratch/uccabz1/launch_tmp/launcher_2020-09-26-18-15-01-416773
REM CASTEP 20.1 from code version af48c487+ pr-geom-scf-spinfix Tue Jun 2 15:39:59 2020 +0100
REM Functional Perdew Burke Ernzerhof Relativity Koelling-Harmon Dispersion off
REM Cut-off 340.0000 eV Grid scale 1.7500 Gmax 16.5316 1/A FBSC none
REM MP grid 3 2 2 Offset 0.000 0.000 0.000 No. kpts 4 Spacing 0.07
REM Total runtime: 33954.2 s
REM Overall efficiency: 98.4 %
REM
REM
REM
REM compiler GCC version 4.9.2
REM options -cpp -iprefix /lustre/shared/ucl/apps/gcc/4.9.2/bin/../lib/gcc/x86_64-unknown-linux-gnu/4.9.2/ -mtune=corei7 -march=x86-64 -g -Og
REM COMMAND_LINE
REM seed -1811745626 -135520233 1279595791 1227410847 1431077257 1498334080 1674092128 2117872401 342227034 -2075755379 -1585266510 457489111
REM
REM S 3|1.8|5|6|7|30:31:32(qc=5)
REM O 2|1.5|12|13|15|20:21(qc=5)
REM Li 1|1.3|8|9|10|10U:20(qc=5)
REM Fe 3|2.2|2.0|1.0|8|9|10|40:41:32(qc=5)
REM 
CELL 1.54180    6.56082    8.50641    8.50641   68.18584   90.00000   90.00000
LATT -1
SFAC Li O  S  Fe 
Li     1  0.1245360000000  0.1695610000000 -0.0834290000000 1.0  -0.04
Li     1 -0.1245360000000 -0.0834290000000  0.1695610000000 1.0  -0.04
Li     1 -0.3754640000000  0.4165710000000 -0.3304390000000 1.0  -0.04
Li     1  0.3754640000000 -0.3304390000000  0.4165710000000 1.0  -0.04
Li     1 -0.2631600000000  0.3518060000000  0.2697340000000 1.0   0.03
Li     1  0.2631600000000  0.2697340000000  0.3518060000000 1.0   0.03
Li     1  0.2368400000000 -0.2302660000000 -0.1481940000000 1.0   0.03
Li     1 -0.2368400000000 -0.1481940000000 -0.2302660000000 1.0   0.03
O      2 -0.0000000000000 -0.2678210000000 -0.2678210000000 1.0   0.24
O      2  0.5000000000000  0.2321790000000  0.2321790000000 1.0   0.24
S      3 -0.0608480000000  0.3720940000000  0.0148680000000 1.0   0.22
S      3  0.0608480000000  0.0148680000000  0.3720940000000 1.0   0.22
S      3 -0.5608480000000 -0.4851320000000 -0.1279060000000 1.0   0.22
S      3  0.5608480000000 -0.1279060000000 -0.4851320000000 1.0   0.22
S      3  0.2385420000000 -0.1505400000000  0.1141380000000 1.0   0.11
S      3 -0.2385420000000  0.1141380000000 -0.1505400000000 1.0   0.11
S      3 -0.2614580000000 -0.3858620000000  0.3494600000000 1.0   0.11
S      3  0.2614580000000  0.3494600000000 -0.3858620000000 1.0   0.11
Fe     4 -0.1105650000000 -0.2363870000000 -0.4804330000000 1.0   2.96
Fe     4  0.1105650000000 -0.4804330000000 -0.2363870000000 1.0   2.96
Fe     4  0.3894350000000  0.0195670000000  0.2636130000000 1.0   2.96
Fe     4 -0.3894350000000  0.2636130000000  0.0195670000000 1.0   2.96
Fe     4  0.5000000000000 -0.0024030000000 -0.0024030000000 1.0   2.93
Fe     4 -0.0000000000000  0.4975970000000  0.4975970000000 1.0   2.93
END
