TITL LFSO-Li4Fe3S4O-200926-072442-3524b5 -0.0702 402.632410 -1.00848682E+004 19.7060 20.1725 24 (P-4) n - 1
REM
REM Run started: Sat, 26 Sep 2020 10:54:09 +0100 in /lustre/scratch/uccabz1/launch_tmp/launcher_2020-09-26-06-24-40-304949
REM CASTEP 20.1 from code version af48c487+ pr-geom-scf-spinfix Tue Jun 2 15:39:59 2020 +0100
REM Functional Perdew Burke Ernzerhof Relativity Koelling-Harmon Dispersion off
REM Cut-off 340.0000 eV Grid scale 1.7500 Gmax 16.5316 1/A FBSC none
REM MP grid 2 2 2 Offset 0.000 0.000 0.000 No. kpts 1 Spacing 0.07
REM Total runtime: 13477.7 s
REM Overall efficiency: 84.7778 %
REM
REM
REM
REM compiler GCC version 4.9.2
REM options -cpp -iprefix /lustre/shared/ucl/apps/gcc/4.9.2/bin/../lib/gcc/x86_64-unknown-linux-gnu/4.9.2/ -mtune=corei7 -march=x86-64 -g -Og
REM COMMAND_LINE
REM seed 561795872 -1664444964 922278343 901564164 -1119464339 2032978669 -351365012 1910693103 -306530752 1891554530 -1992924697 939124670
REM
REM S 3|1.8|5|6|7|30:31:32(qc=5)
REM O 2|1.5|12|13|15|20:21(qc=5)
REM Li 1|1.3|8|9|10|10U:20(qc=5)
REM Fe 3|2.2|2.0|1.0|8|9|10|40:41:32(qc=5)
REM 
CELL 1.54180    7.12933    7.12933    7.92156   90.00000   90.00000   90.00000
LATT -1
SFAC Li O  S  Fe 
Li     1  0.3140270000000  0.1664800000000  0.0626250000000 1.0  -0.00
Li     1 -0.3140270000000 -0.1664800000000  0.0626250000000 1.0  -0.00
Li     1 -0.1664800000000  0.3140270000000 -0.0626250000000 1.0  -0.00
Li     1  0.1664800000000 -0.3140270000000 -0.0626250000000 1.0  -0.00
Li     1  0.0402710000000  0.1610380000000 -0.3599280000000 1.0   0.01
Li     1 -0.0402710000000 -0.1610380000000 -0.3599280000000 1.0   0.01
Li     1 -0.1610380000000  0.0402710000000  0.3599280000000 1.0   0.01
Li     1  0.1610380000000 -0.0402710000000  0.3599280000000 1.0   0.01
O      2  0.5000000000000 -0.5000000000000 -0.3263460000000 1.0   0.44
O      2 -0.5000000000000  0.5000000000000  0.3263460000000 1.0   0.44
S      3  0.3524170000000 -0.1686330000000  0.1647580000000 1.0   0.09
S      3 -0.3524170000000  0.1686330000000  0.1647580000000 1.0   0.09
S      3  0.1686330000000  0.3524170000000 -0.1647580000000 1.0   0.09
S      3 -0.1686330000000 -0.3524170000000 -0.1647580000000 1.0   0.09
S      3  0.2926740000000 -0.0665250000000 -0.3597990000000 1.0   0.12
S      3 -0.2926740000000  0.0665250000000 -0.3597990000000 1.0   0.12
S      3  0.0665250000000  0.2926740000000  0.3597990000000 1.0   0.12
S      3 -0.0665250000000 -0.2926740000000  0.3597990000000 1.0   0.12
Fe     4 -0.4253380000000 -0.2573190000000 -0.3371390000000 1.0   2.93
Fe     4  0.4253380000000  0.2573190000000 -0.3371390000000 1.0   2.93
Fe     4  0.2573190000000 -0.4253380000000  0.3371390000000 1.0   2.93
Fe     4 -0.2573190000000  0.4253380000000  0.3371390000000 1.0   2.93
Fe     4  0.0000000000000  0.5000000000000 -0.4110840000000 1.0   3.13
Fe     4 -0.5000000000000  0.0000000000000  0.4110840000000 1.0   3.13
END
