TITL LFSO-Li2Fe3S3O-200912-202731-b4d33c -0.0435 158.810367 -4.33963255E+003 6.35307 6.73185 9 (Pm) n - 1
REM
REM Run started: Sun, 13 Sep 2020 00:01:26 +0100 in /lustre/scratch/uccabz1/launch_tmp/launcher_2020-09-12-19-27-30-210646
REM CASTEP 20.1 from code version af48c487+ pr-geom-scf-spinfix Tue Jun 2 15:39:59 2020 +0100
REM Functional Perdew Burke Ernzerhof Relativity Koelling-Harmon Dispersion off
REM Cut-off 340.0000 eV Grid scale 1.7500 Gmax 16.5316 1/A FBSC none
REM MP grid 5 4 2 Offset 0.000 0.000 0.000 No. kpts 10 Spacing 0.07
REM Total runtime: 12875.8 s
REM Overall efficiency: 85.9091 %
REM
REM
REM
REM compiler GCC version 4.9.2
REM options -cpp -iprefix /lustre/shared/ucl/apps/gcc/4.9.2/bin/../lib/gcc/x86_64-unknown-linux-gnu/4.9.2/ -mtune=corei7 -march=x86-64 -g -Og
REM COMMAND_LINE
REM seed 860459547 1333600300 110520051 -1410889896 748571870 -1755287419 341558383 1974072799 77918581 237844783 -583734147 666118738
REM
REM S 3|1.8|5|6|7|30:31:32(qc=5)
REM O 2|1.5|12|13|15|20:21(qc=5)
REM Li 1|1.3|8|9|10|10U:20(qc=5)
REM Fe 3|2.2|2.0|1.0|8|9|10|40:41:32(qc=5)
REM 
CELL 1.54180    3.08252    4.47937   11.50243   90.00000   90.00000   90.71918
LATT -1
SFAC Li O  S  Fe 
Li     1  0.4137410000000 -0.3096180000000  0.3781350000000 1.0  -0.00
Li     1  0.4137410000000 -0.3096180000000 -0.3781350000000 1.0  -0.00
O      2 -0.3471180000000 -0.1835130000000  0.0000000000000 1.0   0.10
S      3  0.1576970000000  0.3820910000000 -0.1983860000000 1.0  -0.05
S      3  0.1576970000000  0.3820910000000  0.1983860000000 1.0  -0.05
S      3 -0.0821790000000 -0.0737710000000  0.5000000000000 1.0  -0.01
Fe     4 -0.3482410000000  0.1491340000000 -0.1004430000000 1.0   1.81
Fe     4 -0.3482410000000  0.1491340000000  0.1004430000000 1.0   1.81
Fe     4  0.1503430000000 -0.4915640000000  0.0000000000000 1.0   2.74
END
