TITL LFSO-Li3FeS2O-200911-184523-47f276 0.0191 421.012016 -7.52293358E+003 4.99025 10.1929 21 (Pmm2) n - 1
REM
REM Run started: Sat, 12 Sep 2020 00:12:11 +0100 in /lustre/scratch/uccabz1/launch_tmp/launcher_2020-09-11-17-45-21-828908
REM CASTEP 20.1 from code version af48c487+ pr-geom-scf-spinfix Tue Jun 2 15:39:59 2020 +0100
REM Functional Perdew Burke Ernzerhof Relativity Koelling-Harmon Dispersion off
REM Cut-off 340.0000 eV Grid scale 1.7500 Gmax 16.5316 1/A FBSC none
REM MP grid 3 3 2 Offset 0.000 0.000 0.000 No. kpts 4 Spacing 0.07
REM Total runtime: 19729.6 s
REM Overall efficiency: 92.1111 %
REM
REM
REM
REM compiler GCC version 4.9.2
REM options -cpp -iprefix /lustre/shared/ucl/apps/gcc/4.9.2/bin/../lib/gcc/x86_64-unknown-linux-gnu/4.9.2/ -mtune=corei7 -march=x86-64 -g -Og
REM COMMAND_LINE
REM seed -1940732483 -949909067 803310587 1699062073 -868519827 -1057339892 324166577 1130602151 1409683437 543407392 -1271794511 -1026311319
REM
REM S 3|1.8|5|6|7|30:31:32(qc=5)
REM O 2|1.5|12|13|15|20:21(qc=5)
REM Li 1|1.3|8|9|10|10U:20(qc=5)
REM Fe 3|2.2|2.0|1.0|8|9|10|40:41:32(qc=5)
REM 
CELL 1.54180    5.49456    6.99401   10.95558   90.00000   90.00000   90.00000
LATT -1
SFAC Li O  S  Fe 
Li     1 -0.3553920000000  0.2833590000000 -0.1614740000000 1.0  -0.03
Li     1 -0.3553920000000 -0.2833590000000  0.1614740000000 1.0  -0.03
Li     1 -0.3553920000000  0.2833590000000  0.1614740000000 1.0  -0.03
Li     1 -0.3553920000000 -0.2833590000000 -0.1614740000000 1.0  -0.03
Li     1  0.0904930000000 -0.3440130000000  0.1282840000000 1.0   0.00
Li     1  0.0904930000000  0.3440130000000 -0.1282840000000 1.0   0.00
Li     1  0.0904930000000 -0.3440130000000 -0.1282840000000 1.0   0.00
Li     1  0.0904930000000  0.3440130000000  0.1282840000000 1.0   0.00
Li     1 -0.0513400000000  0.0000000000000 -0.5000000000000 1.0   0.14
O      2 -0.1629450000000 -0.5000000000000  0.2116810000000 1.0   0.21
O      2 -0.1629450000000 -0.5000000000000 -0.2116810000000 1.0   0.21
O      2  0.1395280000000  0.5000000000000  0.0000000000000 1.0   0.01
S      3  0.4481720000000 -0.2265110000000 -0.3543350000000 1.0   0.10
S      3  0.4481720000000  0.2265110000000  0.3543350000000 1.0   0.10
S      3  0.4481720000000 -0.2265110000000  0.3543350000000 1.0   0.10
S      3  0.4481720000000  0.2265110000000 -0.3543350000000 1.0   0.10
S      3  0.4029280000000 -0.1541890000000  0.0000000000000 1.0   0.00
S      3  0.4029280000000  0.1541890000000  0.0000000000000 1.0   0.00
Fe     4  0.6451260000000  0.5000000000000  0.3534290000000 1.0   3.28
Fe     4  0.6451260000000  0.5000000000000 -0.3534290000000 1.0   3.28
Fe     4  0.4517970000000  0.0000000000000  0.5000000000000 1.0  -2.42
END
