TITL LFSO-Li3Fe3S5O-200929-111833-91802e 0.0230 459.782134 -1.02953227E+004 -4.17107 18.4488 24 (C2) n - 1
REM
REM Run started: Wed, 30 Sep 2020 09:04:23 +0100 in /lustre/scratch/uccabz1/launch_tmp/launcher_2020-09-29-10-18-31-961848
REM CASTEP 20.1 from code version af48c487+ pr-geom-scf-spinfix Tue Jun 2 15:39:59 2020 +0100
REM Functional Perdew Burke Ernzerhof Relativity Koelling-Harmon Dispersion off
REM Cut-off 340.0000 eV Grid scale 1.7500 Gmax 16.5316 1/A FBSC none
REM MP grid 3 2 2 Offset 0.000 0.000 0.000 No. kpts 5 Spacing 0.07
REM Total runtime: 81034.8 s
REM Overall efficiency: 68.1667 %
REM
REM
REM
REM compiler GCC version 4.9.2
REM options -cpp -iprefix /lustre/shared/ucl/apps/gcc/4.9.2/bin/../lib/gcc/x86_64-unknown-linux-gnu/4.9.2/ -mtune=corei7 -march=x86-64 -g -Og
REM COMMAND_LINE
REM seed -1070928750 802541399 -1263547244 793522666 1807351794 2087766039 -209910421 1966006984 1729800402 -155325622 -1975920119 -244548485
REM
REM S 3|1.8|5|6|7|30:31:32(qc=5)
REM O 2|1.5|12|13|15|20:21(qc=5)
REM Li 1|1.3|8|9|10|10U:20(qc=5)
REM Fe 3|2.2|2.0|1.0|8|9|10|40:41:32(qc=5)
REM 
CELL 1.54180    6.38997    9.12532    9.12532  109.70041  103.21305  103.21305
LATT -1
SFAC Li O  S  Fe 
Li     1  0.3930900000000  0.0708580000000 -0.6192790000000 1.0   0.02
Li     1 -0.3930900000000  0.6192790000000 -0.0708580000000 1.0   0.02
Li     1  0.3535860000000  0.3278980000000  0.2481620000000 1.0   0.06
Li     1 -0.3535860000000 -0.2481620000000 -0.3278980000000 1.0   0.06
Li     1  0.2984090000000  0.2079210000000 -0.0816000000000 1.0  -0.02
Li     1 -0.2984090000000  0.0816000000000 -0.2079210000000 1.0  -0.02
O      2  0.4198440000000  0.2985190000000  0.4427450000000 1.0  -0.20
O      2 -0.4198440000000 -0.4427450000000 -0.2985190000000 1.0  -0.20
S      3 -0.1142180000000  0.2776730000000  0.3944900000000 1.0   0.03
S      3  0.1142180000000 -0.3944900000000 -0.2776730000000 1.0   0.03
S      3  0.1786550000000 -0.3581490000000  0.2440800000000 1.0  -0.06
S      3 -0.1786550000000 -0.2440800000000  0.3581490000000 1.0  -0.06
S      3  0.2798730000000  0.0394510000000  0.0783630000000 1.0   0.27
S      3 -0.2798730000000 -0.0783630000000 -0.0394510000000 1.0   0.27
S      3 -0.3491140000000 -0.1111400000000  0.4907340000000 1.0   0.03
S      3  0.3491140000000 -0.4907340000000  0.1111400000000 1.0   0.03
S      3  0.2879270000000 -0.0142370000000 -0.3328850000000 1.0   0.17
S      3 -0.2879270000000  0.3328850000000  0.0142370000000 1.0   0.17
Fe     4  0.2720910000000  0.4345540000000 -0.4401250000000 1.0  -2.93
Fe     4 -0.2720910000000  0.4401250000000 -0.4345540000000 1.0  -2.93
Fe     4  0.3409090000000 -0.1204660000000 -0.1458850000000 1.0   2.97
Fe     4 -0.3409090000000  0.1458850000000  0.1204660000000 1.0   2.97
Fe     4  0.0759810000000 -0.2814060000000 -0.4676300000000 1.0  -2.42
Fe     4 -0.0759810000000  0.4676300000000  0.2814060000000 1.0  -2.42
END
