TITL LFSO-Li4Fe3SO4-200928-144648-dd41ac 0.0251 321.497530 -1.08924284E+004 20.1967 20.7245 24 (Cc) n - 1
REM
REM Run started: Tue, 29 Sep 2020 16:03:45 +0100 in /scratch/scratch/uccabz1/launch_tmp/launcher_2020-09-28-13-46-46-437745
REM CASTEP 19.11| from code version Version unavailable
REM Functional Perdew Burke Ernzerhof Relativity Koelling-Harmon Dispersion off
REM Cut-off 340.0000 eV Grid scale 1.7500 Gmax 16.5316 1/A FBSC none
REM MP grid 3 3 2 Offset 0.000 0.000 0.000 No. kpts 6 Spacing 0.07
REM Total runtime: 50840.6 s
REM Overall efficiency: 98.6 %
REM
REM
REM
REM compiler GCC version 4.9.2
REM options -cpp -iprefix /scratch/UCL/applications/gcc/4.9.2/bin/../lib/gcc/x86_64-unknown-linux-gnu/4.9.2/ -mtune=corei7 -march=x86-64 -g -O2
REM COMMAND_LINE
REM seed 683103887 -437390316 -1868296952 778853641 -551138589 240963209 766619257 -1723123753 -1834507909 1581929877 270862659 -2067115970
REM
REM S 3|1.8|5|6|7|30:31:32(qc=5)
REM O 2|1.5|12|13|15|20:21(qc=5)
REM Li 1|1.3|8|9|10|10U:20(qc=5)
REM Fe 3|2.2|2.0|1.0|8|9|10|40:41:32(qc=5)
REM 
CELL 1.54180    6.02798    6.02798   10.34978   68.14574   68.14574   75.83863
LATT -1
SFAC Li O  S  Fe 
Li     1  0.1083740000000 -0.4548340000000 -0.1163350000000 1.0  -0.05
Li     1 -0.4548340000000  0.1083740000000 -0.6163350000000 1.0  -0.05
Li     1 -0.6126680000000  0.1367520000000 -0.0146520000000 1.0  -0.05
Li     1  0.1367520000000 -0.6126680000000  0.4853480000000 1.0  -0.05
Li     1  0.1440660000000 -0.2878530000000 -0.4030240000000 1.0  -0.01
Li     1 -0.2878530000000  0.1440660000000  0.0969760000000 1.0  -0.01
Li     1 -0.3682930000000  0.4612640000000 -0.4477450000000 1.0  -0.05
Li     1  0.4612640000000 -0.3682930000000  0.0522550000000 1.0  -0.05
O      2 -0.1281670000000 -0.4742820000000 -0.3813040000000 1.0   0.33
O      2 -0.4742820000000 -0.1281670000000  0.1186960000000 1.0   0.33
O      2 -0.4161910000000  0.3945670000000 -0.0594120000000 1.0   0.26
O      2  0.3945670000000 -0.4161910000000  0.4405880000000 1.0   0.26
O      2  0.1227600000000  0.2317810000000 -0.1227300000000 1.0   0.20
O      2  0.2317810000000  0.1227600000000  0.3772700000000 1.0   0.20
O      2 -0.2429220000000  0.3004270000000  0.2165590000000 1.0   0.24
O      2  0.3004270000000 -0.2429220000000 -0.2834410000000 1.0   0.24
S      3 -0.3168170000000  0.0305300000000 -0.2683880000000 1.0   0.17
S      3  0.0305300000000 -0.3168170000000  0.2316120000000 1.0   0.17
Fe     4  0.2376870000000 -0.1247980000000  0.3062670000000 1.0   3.15
Fe     4 -0.1247980000000  0.2376870000000 -0.1937330000000 1.0   3.15
Fe     4  0.2849990000000  0.0198110000000 -0.2288040000000 1.0   2.40
Fe     4  0.0198110000000  0.2849990000000  0.2711960000000 1.0   2.40
Fe     4 -0.3842330000000 -0.3419460000000 -0.2404100000000 1.0   3.50
Fe     4 -0.3419460000000 -0.3842330000000  0.2595900000000 1.0   3.50
END
