TITL LFSO-Li6FeS3O-200910-040425-ac7917 -0.1711 507.803854 -6.82433022E+003 -8.04406 8.41020 22 (R3) n - 1
REM
REM Run started: Fri, 11 Sep 2020 23:18:21 +0100 in /lustre/scratch/uccabz1/launch_tmp/launcher_2020-09-11-21-22-09-317824
REM CASTEP 20.1 from code version af48c487+ pr-geom-scf-spinfix Tue Jun 2 15:39:59 2020 +0100
REM Functional Perdew Burke Ernzerhof Relativity Koelling-Harmon Dispersion off
REM Cut-off 340.0000 eV Grid scale 1.7500 Gmax 16.5316 1/A FBSC none
REM MP grid 3 3 3 Offset 0.000 0.000 0.000 No. kpts 6 Spacing 0.07
REM Total runtime: 150683 s
REM Overall efficiency: 98.5 %
REM
REM
REM
REM compiler GCC version 4.9.2
REM options -cpp -iprefix /lustre/shared/ucl/apps/gcc/4.9.2/bin/../lib/gcc/x86_64-unknown-linux-gnu/4.9.2/ -mtune=corei7 -march=x86-64 -g -Og
REM COMMAND_LINE
REM seed 362260573 375538554 368535522 636740413 -160873769 -1999541277 1216948727 -1142576891 -33401526 1544462866 166858277 2028143755
REM
REM S 3|1.8|5|6|7|30:31:32(qc=5)
REM O 2|1.5|12|13|15|20:21(qc=5)
REM Li 1|1.3|8|9|10|10U:20(qc=5)
REM Fe 3|2.2|2.0|1.0|8|9|10|40:41:32(qc=5)
REM 
CELL 1.54180   10.87910   10.87910   10.87910   41.35463   41.35463   41.35463
LATT -1
SFAC Li O  S  Fe 
Li     1 -0.3680170000000 -0.3836850000000  0.2079420000000 1.0  -0.00
Li     1 -0.3836850000000  0.2079420000000 -0.3680170000000 1.0  -0.00
Li     1  0.2079420000000 -0.3680170000000 -0.3836850000000 1.0  -0.00
Li     1  0.0784050000000 -0.2450000000000  0.0691150000000 1.0  -0.02
Li     1 -0.2450000000000  0.0691150000000  0.0784050000000 1.0  -0.02
Li     1  0.0691150000000  0.0784050000000 -0.2450000000000 1.0  -0.02
Li     1 -0.0786130000000  0.2736240000000 -0.0166780000000 1.0   0.03
Li     1  0.2736240000000 -0.0166780000000 -0.0786130000000 1.0   0.03
Li     1 -0.0166780000000 -0.0786130000000  0.2736240000000 1.0   0.03
Li     1 -0.0395080000000  0.3526100000000  0.3699980000000 1.0   0.03
Li     1  0.3526100000000  0.3699980000000 -0.0395080000000 1.0   0.03
Li     1  0.3699980000000 -0.0395080000000  0.3526100000000 1.0   0.03
O      2  0.2121440000000  0.2121440000000  0.2121440000000 1.0  -0.25
O      2  0.0136980000000  0.0136980000000  0.0136980000000 1.0  -0.00
S      3 -0.2445660000000  0.7433100000000  0.2528160000000 1.0  -0.16
S      3  0.7433100000000  0.2528160000000 -0.2445660000000 1.0  -0.16
S      3  0.2528160000000 -0.2445660000000  0.7433100000000 1.0  -0.16
S      3  0.2888650000000 -0.2028600000000  0.2642830000000 1.0  -0.16
S      3 -0.2028600000000  0.2642830000000  0.2888650000000 1.0  -0.16
S      3  0.2642830000000  0.2888650000000 -0.2028600000000 1.0  -0.16
Fe     4 -0.4061900000000 -0.4061900000000 -0.4061900000000 1.0  -3.33
Fe     4  0.1510370000000  0.1510370000000  0.1510370000000 1.0  -3.64
END
