TITL LFSO-Li4Fe3S2O3-201001-092205-0589c3 0.0169 188.258900 -5.30952655E+003 6.04439 6.82845 12 (P3) n - 1
REM
REM Run started: Thu, 01 Oct 2020 10:12:13 +0100 in /lustre/scratch/uccabz1/launch_tmp/launcher_2020-10-01-08-22-03-425827
REM CASTEP 20.1 from code version af48c487+ pr-geom-scf-spinfix Tue Jun 2 15:39:59 2020 +0100
REM Functional Perdew Burke Ernzerhof Relativity Koelling-Harmon Dispersion off
REM Cut-off 340.0000 eV Grid scale 1.7500 Gmax 16.5316 1/A FBSC none
REM MP grid 3 3 3 Offset 0.000 0.000 0.000 No. kpts 8 Spacing 0.07
REM Total runtime: 3044.32 s
REM Overall efficiency: 89.4286 %
REM
REM
REM
REM compiler GCC version 4.9.2
REM options -cpp -iprefix /lustre/shared/ucl/apps/gcc/4.9.2/bin/../lib/gcc/x86_64-unknown-linux-gnu/4.9.2/ -mtune=corei7 -march=x86-64 -g -Og
REM COMMAND_LINE
REM seed -855108003 927529828 -1510339669 1596959152 -220325928 -1873666436 812306092 1592708872 -805070345 1135899614 139831137 1213054067
REM
REM S 3|1.8|5|6|7|30:31:32(qc=5)
REM O 2|1.5|12|13|15|20:21(qc=5)
REM Li 1|1.3|8|9|10|10U:20(qc=5)
REM Fe 3|2.2|2.0|1.0|8|9|10|40:41:32(qc=5)
REM 
CELL 1.54180    5.03862    6.56835    6.56835  120.00000   90.00000   90.00000
LATT -1
SFAC Li O  S  Fe 
Li     1  0.2529400000000  0.3491160000000  0.3966820000000 1.0  -0.11
Li     1  0.2529400000000  0.0475660000000 -0.3491160000000 1.0  -0.11
Li     1  0.2529400000000 -0.3966820000000 -0.0475660000000 1.0  -0.11
Li     1 -0.1376640000000 -0.3333330000000  0.3333330000000 1.0   0.00
O      2 -0.1177460000000  0.4830270000000  0.4634920000000 1.0   0.11
O      2 -0.1177460000000 -0.0195350000000 -0.4830270000000 1.0   0.11
O      2 -0.1177460000000 -0.4634920000000  0.0195350000000 1.0   0.11
S      3 -0.1822190000000  0.0000000000000 -0.0000000000000 1.0  -0.15
S      3  0.2503140000000  0.0000000000000 -0.0000000000000 1.0   0.03
Fe     4 -0.2183160000000  0.1959070000000  0.4276690000000 1.0   2.05
Fe     4 -0.2183160000000  0.2317620000000 -0.1959070000000 1.0   2.05
Fe     4 -0.2183160000000 -0.4276690000000 -0.2317620000000 1.0   2.05
END
