TITL LFSO-Li2Fe4S4O-200911-220455-298621 -0.0657 211.375596 -5.50598033E+003 -12.0719 12.7358 11 (R3) n - 1
REM
REM Run started: Sat, 12 Sep 2020 03:37:16 +0100 in /lustre/scratch/uccabz1/launch_tmp/launcher_2020-09-11-21-04-52-993141
REM CASTEP 20.1 from code version af48c487+ pr-geom-scf-spinfix Tue Jun 2 15:39:59 2020 +0100
REM Functional Perdew Burke Ernzerhof Relativity Koelling-Harmon Dispersion off
REM Cut-off 340.0000 eV Grid scale 1.7500 Gmax 16.5316 1/A FBSC none
REM MP grid 3 3 3 Offset 0.000 0.000 0.000 No. kpts 6 Spacing 0.07
REM Total runtime: 22540.5 s
REM Overall efficiency: 97.2727 %
REM
REM
REM
REM compiler GCC version 4.9.2
REM options -cpp -iprefix /lustre/shared/ucl/apps/gcc/4.9.2/bin/../lib/gcc/x86_64-unknown-linux-gnu/4.9.2/ -mtune=corei7 -march=x86-64 -g -Og
REM COMMAND_LINE
REM seed 690798677 768308388 1973199398 939437143 667792302 -1144338955 -1195538857 1594323542 -1246542656 -1749480805 1000464165 1238833266
REM
REM S 3|1.8|5|6|7|30:31:32(qc=5)
REM O 2|1.5|12|13|15|20:21(qc=5)
REM Li 1|1.3|8|9|10|10U:20(qc=5)
REM Fe 3|2.2|2.0|1.0|8|9|10|40:41:32(qc=5)
REM 
CELL 1.54180    6.05507    6.05507    7.51920   66.25659   66.25659   60.00000
LATT -1
SFAC Li O  S  Fe 
Li     1  0.3325640000000  0.3325640000000 -0.9976940000000 1.0  -0.05
Li     1 -0.1079120000000 -0.1079120000000  0.3237360000000 1.0   0.03
O      2  0.4269100000000  0.4269100000000 -1.2807310000000 1.0  -0.28
S      3 -0.1033890000000  0.3061350000000  0.2694640000000 1.0  -0.11
S      3 -0.4722100000000 -0.1033890000000  0.2694640000000 1.0  -0.11
S      3  0.3061350000000 -0.4722100000000  0.2694640000000 1.0  -0.11
S      3 -0.2412040000000 -0.2412040000000  0.7236130000000 1.0  -0.27
Fe     4  0.4514520000000 -0.2259370000000 -0.3943360000000 1.0  -3.29
Fe     4  0.1688220000000  0.4514520000000 -0.3943360000000 1.0  -3.29
Fe     4 -0.2259370000000  0.1688220000000 -0.3943360000000 1.0  -3.29
Fe     4  0.1961810000000  0.1961810000000 -0.5885430000000 1.0  -1.30
END
