TITL LFSO-Li3Fe3S4O2-201002-135713-28e434 -0.0466 687.744521 -1.05623459E+004 -18.7867 19.6542 24 (P1) n - 1
REM
REM Run started: Sat, 03 Oct 2020 06:16:12 +0100 in /scratch/scratch/mmm0366/launch_tmp/launcher_2020-10-02-12-57-11-339625
REM CASTEP 19.11| from code version Version unavailable
REM Functional Perdew Burke Ernzerhof Relativity Koelling-Harmon Dispersion off
REM Cut-off 340.0000 eV Grid scale 1.7500 Gmax 16.5316 1/A FBSC none
REM MP grid 3 3 2 Offset 0.000 0.000 0.000 No. kpts 4 Spacing 0.07
REM Total runtime: 65278.5 s
REM Overall efficiency: 78.0833 %
REM
REM
REM
REM compiler GCC version 4.9.2
REM options -cpp -iprefix /scratch/UCL/applications/gcc/4.9.2/bin/../lib/gcc/x86_64-unknown-linux-gnu/4.9.2/ -mtune=corei7 -march=x86-64 -g -O2
REM COMMAND_LINE
REM seed 1616164875 -244439519 446434402 1961652382 -2140984474 -395427329 1046676252 -664070444 1318793948 -36212673 -1046072732 939819564
REM
REM S 3|1.8|5|6|7|30:31:32(qc=5)
REM O 2|1.5|12|13|15|20:21(qc=5)
REM Li 1|1.3|8|9|10|10U:20(qc=5)
REM Fe 3|2.2|2.0|1.0|8|9|10|40:41:32(qc=5)
REM 
CELL 1.54180    8.04264    8.04264   14.80387   90.00000   90.00000   45.90733
LATT -1
SFAC Li O  S  Fe 
Li     1 -0.0399850000000 -0.3248540000000 -0.4574530000000 1.0   0.00
Li     1  0.0399850000000  0.3248540000000 -0.4574530000000 1.0   0.00
Li     1  0.3248540000000  0.0399850000000  0.0425470000000 1.0   0.00
Li     1 -0.3248540000000 -0.0399850000000  0.0425470000000 1.0   0.00
Li     1 -0.0000000000000  0.0000000000000 -0.2197100000000 1.0  -0.02
Li     1 -0.0000000000000  0.0000000000000  0.2802900000000 1.0  -0.02
O      2  0.2458710000000  0.3689790000000 -0.4620010000000 1.0  -0.29
O      2 -0.2458710000000 -0.3689790000000 -0.4620010000000 1.0  -0.29
O      2 -0.3689790000000 -0.2458710000000  0.0379990000000 1.0  -0.29
O      2  0.3689790000000  0.2458710000000  0.0379990000000 1.0  -0.29
S      3 -0.0009020000000  0.2008250000000  0.1500690000000 1.0  -0.14
S      3  0.0009020000000 -0.2008250000000  0.1500690000000 1.0  -0.14
S      3 -0.2008250000000  0.0009020000000 -0.3499310000000 1.0  -0.14
S      3  0.2008250000000 -0.0009020000000 -0.3499310000000 1.0  -0.14
S      3 -0.0197280000000  0.2091850000000 -0.0657780000000 1.0  -0.11
S      3  0.0197280000000 -0.2091850000000 -0.0657780000000 1.0  -0.11
S      3 -0.2091850000000  0.0197280000000  0.4342220000000 1.0  -0.11
S      3  0.2091850000000 -0.0197280000000  0.4342220000000 1.0  -0.11
Fe     4  0.5383920000000  0.1515770000000 -0.4571110000000 1.0  -2.83
Fe     4 -0.5383920000000 -0.1515770000000 -0.4571110000000 1.0  -2.83
Fe     4 -0.1515770000000 -0.5383920000000  0.0428890000000 1.0  -2.83
Fe     4  0.1515770000000  0.5383920000000  0.0428890000000 1.0  -2.83
Fe     4 -0.0000000000000  0.0000000000000  0.0426690000000 1.0  -2.67
Fe     4 -0.0000000000000  0.0000000000000  0.5426690000000 1.0  -2.67
END
