TITL LFSO-Li4Fe3S2O3-201001-144559-e6627e 0.0211 369.941973 -1.06242671E+004 23.6239 23.8767 24 (Pc) n - 1
REM
REM Run started: Thu, 01 Oct 2020 19:06:10 +0100 in /lustre/scratch/uccabz1/launch_tmp/launcher_2020-10-01-13-45-58-050058
REM CASTEP 20.1 from code version af48c487+ pr-geom-scf-spinfix Tue Jun 2 15:39:59 2020 +0100
REM Functional Perdew Burke Ernzerhof Relativity Koelling-Harmon Dispersion off
REM Cut-off 340.0000 eV Grid scale 1.7500 Gmax 16.5316 1/A FBSC none
REM MP grid 3 3 2 Offset 0.000 0.000 0.000 No. kpts 5 Spacing 0.07
REM Total runtime: 16657.4 s
REM Overall efficiency: 64.2727 %
REM
REM
REM
REM compiler GCC version 4.9.2
REM options -cpp -iprefix /lustre/shared/ucl/apps/gcc/4.9.2/bin/../lib/gcc/x86_64-unknown-linux-gnu/4.9.2/ -mtune=corei7 -march=x86-64 -g -Og
REM COMMAND_LINE
REM seed 187635231 -152557632 454331408 -1797323904 -574075412 1401497822 -1992664934 1352973339 1131553695 1247558380 -2044510314 -1991384762
REM
REM S 3|1.8|5|6|7|30:31:32(qc=5)
REM O 2|1.5|12|13|15|20:21(qc=5)
REM Li 1|1.3|8|9|10|10U:20(qc=5)
REM Fe 3|2.2|2.0|1.0|8|9|10|40:41:32(qc=5)
REM 
CELL 1.54180    6.49660    6.86026    9.42152   90.00000   90.00000   61.76573
LATT -1
SFAC Li O  S  Fe 
Li     1  0.5601940000000  0.2733430000000 -0.1730690000000 1.0  -0.01
Li     1  0.0601940000000 -0.2266570000000  0.1730690000000 1.0  -0.01
Li     1  0.2233250000000  0.3017400000000 -0.4536050000000 1.0  -0.02
Li     1 -0.2766750000000 -0.1982600000000  0.4536050000000 1.0  -0.02
Li     1 -0.3010640000000  0.1855650000000  0.5749220000000 1.0   0.04
Li     1  0.1989360000000 -0.3144350000000 -0.5749220000000 1.0   0.04
Li     1 -0.0970240000000 -0.1264340000000 -0.1946510000000 1.0  -0.01
Li     1 -0.5970240000000  0.3735660000000  0.1946510000000 1.0  -0.01
O      2  0.3645760000000 -0.3373270000000  0.2584900000000 1.0   0.33
O      2 -0.1354240000000  0.1626730000000 -0.2584900000000 1.0   0.33
O      2  0.5325820000000  0.4071850000000  0.0087840000000 1.0   0.39
O      2  0.0325820000000 -0.0928150000000 -0.0087840000000 1.0   0.39
O      2  0.0069770000000 -0.4716080000000 -0.5803220000000 1.0   0.25
O      2  0.5069770000000  0.0283920000000  0.5803220000000 1.0   0.25
S      3  0.0130580000000  0.4289530000000  0.0652990000000 1.0   0.31
S      3  0.5130580000000 -0.0710470000000 -0.0652990000000 1.0   0.31
S      3 -0.1955580000000  0.1026640000000  0.3198270000000 1.0   0.23
S      3  0.3044420000000 -0.3973360000000 -0.3198270000000 1.0   0.23
Fe     4 -0.1682600000000  0.1927790000000  0.0817210000000 1.0   3.44
Fe     4  0.3317400000000 -0.3072210000000 -0.0817210000000 1.0   3.44
Fe     4 -0.4077100000000 -0.3617720000000  0.1373240000000 1.0   3.48
Fe     4  0.0922900000000  0.1382280000000 -0.1373240000000 1.0   3.48
Fe     4 -0.0762060000000  0.3714610000000  0.2951120000000 1.0   3.40
Fe     4  0.4237940000000 -0.1285390000000 -0.2951120000000 1.0   3.40
END
