TITL LFSO-Li2Fe4S4O-200911-202642-724a29 -0.0224 165.672108 -5.50572224E+003 -0.412934E-02 0.516246E-02 11 (Fmmm) n - 1
REM
REM Run started: Fri, 11 Sep 2020 22:49:58 +0100 in /lustre/scratch/uccabz1/launch_tmp/launcher_2020-09-11-19-26-40-553589
REM CASTEP 20.1 from code version af48c487+ pr-geom-scf-spinfix Tue Jun 2 15:39:59 2020 +0100
REM Functional Perdew Burke Ernzerhof Relativity Koelling-Harmon Dispersion off
REM Cut-off 340.0000 eV Grid scale 1.7500 Gmax 16.5316 1/A FBSC none
REM MP grid 4 4 3 Offset 0.000 0.000 0.000 No. kpts 16 Spacing 0.07
REM Total runtime: 8802.69 s
REM Overall efficiency: 96.4286 %
REM
REM
REM
REM compiler GCC version 4.9.2
REM options -cpp -iprefix /lustre/shared/ucl/apps/gcc/4.9.2/bin/../lib/gcc/x86_64-unknown-linux-gnu/4.9.2/ -mtune=corei7 -march=x86-64 -g -Og
REM COMMAND_LINE
REM seed 2362145 -996410536 -1688095253 -1880454279 209304410 -1129012631 653619051 1076722138 -918638821 -215139627 -1989532069 -648478523
REM
REM S 3|1.8|5|6|7|30:31:32(qc=5)
REM O 2|1.5|12|13|15|20:21(qc=5)
REM Li 1|1.3|8|9|10|10U:20(qc=5)
REM Fe 3|2.2|2.0|1.0|8|9|10|40:41:32(qc=5)
REM 
CELL 1.54180    6.67578    6.67578    5.95170   98.79359   98.79359  136.66991
LATT -1
SFAC Li O  S  Fe 
Li     1 -0.1594340000000  0.1594340000000  0.0000000000000 1.0
Li     1  0.1594340000000 -0.1594340000000  0.0000000000000 1.0
O      2 -0.0000000000000  0.0000000000000  0.0000000000000 1.0
S      3  0.4937790000000 -0.2262650000000  0.2675140000000 1.0
S      3  0.5062210000000  0.2262650000000 -0.2675140000000 1.0
S      3 -0.2262650000000 -0.5062210000000  0.2675140000000 1.0
S      3  0.2262650000000 -0.4937790000000 -0.2675140000000 1.0
Fe     4 -0.0997090000000 -0.0997090000000  0.3025900000000 1.0
Fe     4 -0.4023000000000 -0.4023000000000 -0.3025900000000 1.0
Fe     4  0.4023000000000  0.4023000000000  0.3025900000000 1.0
Fe     4  0.0997090000000  0.0997090000000 -0.3025900000000 1.0
END
