TITL LFSO-Li4Fe2S4O-200910-211549-014c62 -0.0160 391.613142 -8.36167103E+003 11.9388 12.5381 22 (Cc) n - 1
REM
REM Run started: Fri, 11 Sep 2020 22:52:53 +0100 in /lustre/scratch/uccabz1/launch_tmp/launcher_2020-09-10-20-15-47-653556
REM CASTEP 20.1 from code version af48c487+ pr-geom-scf-spinfix Tue Jun 2 15:39:59 2020 +0100
REM Functional Perdew Burke Ernzerhof Relativity Koelling-Harmon Dispersion off
REM Cut-off 340.0000 eV Grid scale 1.7500 Gmax 16.5316 1/A FBSC none
REM MP grid 4 3 2 Offset 0.000 0.000 0.000 No. kpts 10 Spacing 0.07
REM Total runtime: 105452 s
REM Overall efficiency: 81.5 %
REM
REM
REM
REM compiler GCC version 4.9.2
REM options -cpp -iprefix /lustre/shared/ucl/apps/gcc/4.9.2/bin/../lib/gcc/x86_64-unknown-linux-gnu/4.9.2/ -mtune=corei7 -march=x86-64 -g -Og
REM COMMAND_LINE
REM seed 1901051776 -1336909775 1798229358 454861983 -2037278869 -1334540796 622566433 -1687666499 -2041988877 -1293083690 1136216192 693047884
REM
REM S 3|1.8|5|6|7|30:31:32(qc=5)
REM O 2|1.5|12|13|15|20:21(qc=5)
REM Li 1|1.3|8|9|10|10U:20(qc=5)
REM Fe 3|2.2|2.0|1.0|8|9|10|40:41:32(qc=5)
REM 
CELL 1.54180    6.01222   10.36336   10.38812   60.07882   69.07457   44.27381
LATT -1
SFAC Li O  S  Fe 
Li     1 -0.5169420000000 -0.0660790000000  0.2732200000000 1.0   0.01
Li     1 -1.0169420000000 -0.2928590000000 -0.2732200000000 1.0   0.01
Li     1 -0.0085830000000  0.3808560000000  0.0011290000000 1.0   0.04
Li     1 -0.5085830000000 -0.1180150000000 -0.0011290000000 1.0   0.04
Li     1  0.4639780000000  0.2514160000000 -0.2519120000000 1.0  -0.00
Li     1 -0.0360220000000  0.4995050000000  0.2519120000000 1.0  -0.00
Li     1  0.0384990000000 -0.1649220000000 -0.0673450000000 1.0   0.03
Li     1  0.5384990000000  0.2677330000000  0.0673450000000 1.0   0.03
O      2  0.2281750000000 -0.4749290000000 -0.3773920000000 1.0   0.14
O      2 -0.2718250000000 -0.3523210000000  0.3773920000000 1.0   0.14
S      3  0.3473310000000 -0.4118760000000  0.3122870000000 1.0   0.10
S      3 -0.1526690000000  0.4004120000000 -0.3122870000000 1.0   0.10
S      3 -0.0942830000000  0.0391130000000 -0.3987760000000 1.0   0.18
S      3  0.4057170000000  0.1403370000000  0.3987760000000 1.0   0.18
S      3 -0.4673880000000  0.0839550000000  0.0054120000000 1.0  -0.02
S      3  0.0326120000000 -0.4106330000000 -0.0054120000000 1.0  -0.02
S      3 -0.0908610000000  0.1719610000000  0.2082070000000 1.0   0.13
S      3  0.4091390000000 -0.1198320000000 -0.2082070000000 1.0   0.13
Fe     4  0.0307860000000  0.5448890000000 -0.5028860000000 1.0   2.62
Fe     4 -0.4692140000000 -0.4579970000000  0.5028860000000 1.0   2.62
Fe     4  0.1102760000000  0.1504810000000 -0.3933720000000 1.0   2.75
Fe     4 -0.3897240000000  0.2571080000000  0.3933720000000 1.0   2.75
END
