TITL LFSO-Li4FeSO2-200910-090752-a6db48 0.0125 134.644342 -2.84233409E+003 4.00000 4.14380 8 (P2) n - 1
REM
REM Run started: Thu, 10 Sep 2020 10:17:36 +0100 in /lustre/scratch/uccabz1/launch_tmp/launcher_2020-09-10-08-07-50-626793
REM CASTEP 20.1 from code version af48c487+ pr-geom-scf-spinfix Tue Jun 2 15:39:59 2020 +0100
REM Functional Perdew Burke Ernzerhof Relativity Koelling-Harmon Dispersion off
REM Cut-off 340.0000 eV Grid scale 1.7500 Gmax 16.5316 1/A FBSC none
REM MP grid 3 4 3 Offset 0.000 0.000 0.000 No. kpts 12 Spacing 0.07
REM Total runtime: 4265.67 s
REM Overall efficiency: 89.0769 %
REM
REM
REM
REM compiler GCC version 4.9.2
REM options -cpp -iprefix /lustre/shared/ucl/apps/gcc/4.9.2/bin/../lib/gcc/x86_64-unknown-linux-gnu/4.9.2/ -mtune=corei7 -march=x86-64 -g -Og
REM COMMAND_LINE
REM seed -178684018 240782987 -1213440712 -1919178664 1939854295 -1328021574 690198305 1467108698 -1859421681 888534809 -657204767 1828128222
REM
REM S 3|1.8|5|6|7|30:31:32(qc=5)
REM O 2|1.5|12|13|15|20:21(qc=5)
REM Li 1|1.3|8|9|10|10U:20(qc=5)
REM Fe 3|2.2|2.0|1.0|8|9|10|40:41:32(qc=5)
REM 
CELL 1.54180    5.91727    3.72056    6.21559   90.00000   90.00000   79.72286
LATT -1
SFAC Li O  S  Fe 
Li     1  0.6150600000000 -0.2780290000000 -0.1532200000000 1.0  -0.04
Li     1 -0.6150600000000  0.2780290000000 -0.1532200000000 1.0  -0.04
Li     1  0.2050830000000 -0.3706000000000  0.5163180000000 1.0   0.05
Li     1 -0.2050830000000  0.3706000000000  0.5163180000000 1.0   0.05
O      2 -0.2866240000000  0.2003570000000 -0.2124460000000 1.0   0.17
O      2  0.2866240000000 -0.2003570000000 -0.2124460000000 1.0   0.17
S      3  0.0000000000000  0.0000000000000  0.2785410000000 1.0   0.17
Fe     4  0.0000000000000  0.0000000000000 -0.0798100000000 1.0   3.47
END
