TITL LFSO-Li4FeS2O-200910-120717-cd19b0 0.0124 539.809253 -8.12291752E+003 10.0000 10.9027 24 (P4) n - 1
REM
REM Run started: Fri, 11 Sep 2020 07:06:13 +0100 in /lustre/scratch/uccabz1/launch_tmp/launcher_2020-09-10-11-07-16-131359
REM CASTEP 20.1 from code version af48c487+ pr-geom-scf-spinfix Tue Jun 2 15:39:59 2020 +0100
REM Functional Perdew Burke Ernzerhof Relativity Koelling-Harmon Dispersion off
REM Cut-off 340.0000 eV Grid scale 1.7500 Gmax 16.5316 1/A FBSC none
REM MP grid 2 2 2 Offset 0.000 0.000 0.000 No. kpts 1 Spacing 0.07
REM Total runtime: 68451 s
REM Overall efficiency: 87.7692 %
REM
REM
REM
REM compiler GCC version 4.9.2
REM options -cpp -iprefix /lustre/shared/ucl/apps/gcc/4.9.2/bin/../lib/gcc/x86_64-unknown-linux-gnu/4.9.2/ -mtune=corei7 -march=x86-64 -g -Og
REM COMMAND_LINE
REM seed -1866165284 867408594 -384264902 1842698182 -1747902931 1376606522 -1866963747 -1370681075 450341803 -114266436 -1823706183 -435179054
REM
REM S 3|1.8|5|6|7|30:31:32(qc=5)
REM O 2|1.5|12|13|15|20:21(qc=5)
REM Li 1|1.3|8|9|10|10U:20(qc=5)
REM Fe 3|2.2|2.0|1.0|8|9|10|40:41:32(qc=5)
REM 
CELL 1.54180    7.24942    7.24942   10.27150   90.00000   90.00000   90.00000
LATT -1
SFAC Li O  S  Fe 
Li     1  0.3133670000000  0.3359070000000  0.0753140000000 1.0  -0.05
Li     1 -0.3133670000000 -0.3359070000000  0.0753140000000 1.0  -0.05
Li     1 -0.3359070000000  0.3133670000000  0.0753140000000 1.0  -0.05
Li     1  0.3359070000000 -0.3133670000000  0.0753140000000 1.0  -0.05
Li     1  0.1644910000000 -0.4637630000000 -0.3873500000000 1.0   0.01
Li     1 -0.1644910000000  0.4637630000000 -0.3873500000000 1.0   0.01
Li     1  0.4637630000000  0.1644910000000 -0.3873500000000 1.0   0.01
Li     1 -0.4637630000000 -0.1644910000000 -0.3873500000000 1.0   0.01
Li     1  0.4640610000000 -0.1860520000000 -0.6758150000000 1.0   0.01
Li     1 -0.4640610000000  0.1860520000000 -0.6758150000000 1.0   0.01
Li     1  0.1860520000000  0.4640610000000 -0.6758150000000 1.0   0.01
Li     1 -0.1860520000000 -0.4640610000000 -0.6758150000000 1.0   0.01
O      2  0.5000000000000  0.0000000000000 -0.2619530000000 1.0   0.24
O      2  0.0000000000000  0.5000000000000 -0.2619530000000 1.0   0.24
O      2  0.5000000000000 -0.5000000000000  0.1198740000000 1.0   0.01
S      3 -0.2478840000000 -0.2054540000000  0.4507350000000 1.0   0.01
S      3  0.2478840000000  0.2054540000000  0.4507350000000 1.0   0.01
S      3  0.2054540000000 -0.2478840000000  0.4507350000000 1.0   0.01
S      3 -0.2054540000000  0.2478840000000  0.4507350000000 1.0   0.01
S      3 -0.5000000000000  0.0000000000000  0.1197030000000 1.0   0.08
S      3  0.0000000000000 -0.5000000000000  0.1197030000000 1.0   0.08
Fe     4  0.5000000000000  0.0000000000000 -0.0933780000000 1.0   3.28
Fe     4  0.0000000000000  0.5000000000000 -0.0933780000000 1.0   3.28
Fe     4  0.0000000000000  0.0000000000000  0.4646860000000 1.0   2.89
END
