TITL LFSO-Li3Fe3S2O4-200928-175001-ef8194 0.0489 443.411467 -1.10969879E+004 0.201864 19.5482 24 (R3) n - 1
REM
REM Run started: Tue, 29 Sep 2020 16:57:34 +0100 in /scratch/scratch/uccabz1/launch_tmp/launcher_2020-09-28-16-50-00-075896
REM CASTEP 19.11| from code version Version unavailable
REM Functional Perdew Burke Ernzerhof Relativity Koelling-Harmon Dispersion off
REM Cut-off 340.0000 eV Grid scale 1.7500 Gmax 16.5316 1/A FBSC none
REM MP grid 2 2 2 Offset 0.000 0.000 0.000 No. kpts 2 Spacing 0.07
REM Total runtime: 48579.1 s
REM Overall efficiency: 85.8182 %
REM
REM
REM
REM compiler GCC version 4.9.2
REM options -cpp -iprefix /scratch/UCL/applications/gcc/4.9.2/bin/../lib/gcc/x86_64-unknown-linux-gnu/4.9.2/ -mtune=corei7 -march=x86-64 -g -O2
REM COMMAND_LINE
REM seed 1356021266 2008857087 1244475678 -13213982 -52787290 -989837903 1461712769 -1868386346 2019482961 2059102302 630011222 -219922478
REM
REM S 3|1.8|5|6|7|30:31:32(qc=5)
REM O 2|1.5|12|13|15|20:21(qc=5)
REM Li 1|1.3|8|9|10|10U:20(qc=5)
REM Fe 3|2.2|2.0|1.0|8|9|10|40:41:32(qc=5)
REM 
CELL 1.54180    7.70927    7.70927    7.70927   97.99650   97.99650   97.99650
LATT -1
SFAC Li O  S  Fe 
Li     1  0.2121460000000  0.0769780000000 -0.4957280000000 1.0  -0.01
Li     1 -0.4957280000000  0.2121460000000  0.0769780000000 1.0  -0.01
Li     1  0.0769780000000 -0.4957280000000  0.2121460000000 1.0  -0.01
Li     1 -0.1449970000000  0.5792800000000 -0.1602130000000 1.0   0.03
Li     1 -0.1602130000000 -0.1449970000000  0.5792800000000 1.0   0.03
Li     1  0.5792800000000 -0.1602130000000 -0.1449970000000 1.0   0.03
O      2 -0.2976440000000 -0.2442670000000  0.3003260000000 1.0   0.01
O      2  0.3003260000000 -0.2976440000000 -0.2442670000000 1.0   0.01
O      2 -0.2442670000000  0.3003260000000 -0.2976440000000 1.0   0.01
O      2  0.5189890000000 -0.0217970000000  0.0566240000000 1.0  -0.24
O      2  0.0566240000000  0.5189890000000 -0.0217970000000 1.0  -0.24
O      2 -0.0217970000000  0.0566240000000  0.5189890000000 1.0  -0.24
O      2 -0.2050840000000 -0.2050840000000 -0.2050840000000 1.0  -0.71
O      2 -0.3919200000000 -0.3919200000000 -0.3919200000000 1.0   0.37
S      3  0.3741270000000  0.3118290000000 -0.2167010000000 1.0   0.07
S      3 -0.2167010000000  0.3741270000000  0.3118290000000 1.0   0.07
S      3  0.3118290000000 -0.2167010000000  0.3741270000000 1.0   0.07
S      3  0.3330510000000  0.3330510000000  0.3330510000000 1.0   0.13
Fe     4  0.2223520000000 -0.4779690000000 -0.1468140000000 1.0  -2.66
Fe     4 -0.1468140000000  0.2223520000000 -0.4779690000000 1.0  -2.66
Fe     4 -0.4779690000000 -0.1468140000000  0.2223520000000 1.0  -2.66
Fe     4 -0.4195470000000 -0.4444410000000  0.3475660000000 1.0   2.94
Fe     4  0.3475660000000 -0.4195470000000 -0.4444410000000 1.0   2.94
Fe     4 -0.4444410000000  0.3475660000000 -0.4195470000000 1.0   2.94
END
