TITL LFSO-Li5FeS3O-200910-091946-13355f 0.0366 412.307814 -6.41980976E+003 -6.76594 8.52339 20 (P3) n - 1
REM
REM Run started: Thu, 10 Sep 2020 16:51:54 +0100 in /lustre/scratch/uccabz1/launch_tmp/launcher_2020-09-10-08-19-44-602994
REM CASTEP 20.1 from code version af48c487+ pr-geom-scf-spinfix Tue Jun 2 15:39:59 2020 +0100
REM Functional Perdew Burke Ernzerhof Relativity Koelling-Harmon Dispersion off
REM Cut-off 340.0000 eV Grid scale 1.7500 Gmax 16.5316 1/A FBSC none
REM MP grid 3 3 2 Offset 0.000 0.000 0.000 No. kpts 5 Spacing 0.07
REM Total runtime: 27305.2 s
REM Overall efficiency: 76.375 %
REM
REM
REM
REM compiler GCC version 4.9.2
REM options -cpp -iprefix /lustre/shared/ucl/apps/gcc/4.9.2/bin/../lib/gcc/x86_64-unknown-linux-gnu/4.9.2/ -mtune=corei7 -march=x86-64 -g -Og
REM COMMAND_LINE
REM seed 365283747 -697575420 899394249 -1292850734 834612346 -897093043 1223251931 563479683 1396075870 -1724684830 -1415042282 1727489197
REM
REM S 3|1.8|5|6|7|30:31:32(qc=5)
REM O 2|1.5|12|13|15|20:21(qc=5)
REM Li 1|1.3|8|9|10|10U:20(qc=5)
REM Fe 3|2.2|2.0|1.0|8|9|10|40:41:32(qc=5)
REM 
CELL 1.54180    7.94786    7.94786    7.53686   90.00000   90.00000  120.00000
LATT -1
SFAC Li O  S  Fe 
Li     1 -0.4109150000000 -0.1998740000000  0.4119860000000 1.0   0.02
Li     1  0.1998740000000 -0.2110410000000  0.4119860000000 1.0   0.02
Li     1  0.2110410000000  0.4109150000000  0.4119860000000 1.0   0.02
Li     1 -0.3337800000000 -0.2219490000000 -0.2114010000000 1.0  -0.00
Li     1  0.2219490000000 -0.1118320000000 -0.2114010000000 1.0  -0.00
Li     1  0.1118320000000  0.3337800000000 -0.2114010000000 1.0  -0.00
Li     1 -0.2011840000000  0.2045880000000  0.2074810000000 1.0  -0.03
Li     1 -0.2045880000000 -0.4057730000000  0.2074810000000 1.0  -0.03
Li     1  0.4057730000000  0.2011840000000  0.2074810000000 1.0  -0.03
Li     1  0.3333330000000 -0.3333330000000 -0.3123940000000 1.0   0.16
O      2 -0.3333330000000  0.3333330000000 -0.3392430000000 1.0   0.22
O      2 -0.3333330000000  0.3333330000000  0.1220760000000 1.0  -0.13
S      3 -0.5171060000000 -0.0257170000000 -0.4121430000000 1.0   0.16
S      3  0.0257170000000 -0.4913880000000 -0.4121430000000 1.0   0.16
S      3  0.4913880000000  0.5171060000000 -0.4121430000000 1.0   0.16
S      3  0.1668060000000  0.3374270000000  0.1030780000000 1.0  -0.19
S      3 -0.3374270000000 -0.1706210000000  0.1030780000000 1.0  -0.19
S      3  0.1706210000000 -0.1668060000000  0.1030780000000 1.0  -0.19
Fe     4 -0.3333330000000  0.3333330000000 -0.1166800000000 1.0  -3.43
Fe     4  0.3333330000000 -0.3333330000000  0.0880480000000 1.0  -3.48
END
