TITL LFSO-Li2Fe2SO2-200913-000227-edf980 -0.0555 289.917251 -9.92129081E+003 -17.9940 18.5690 21 (R3) n - 1
REM
REM Run started: Sun, 13 Sep 2020 08:10:35 +0100 in /lustre/scratch/uccabz1/launch_tmp/launcher_2020-09-12-22-58-39-853835
REM CASTEP 20.1 from code version af48c487+ pr-geom-scf-spinfix Tue Jun 2 15:39:59 2020 +0100
REM Functional Perdew Burke Ernzerhof Relativity Koelling-Harmon Dispersion off
REM Cut-off 340.0000 eV Grid scale 1.7500 Gmax 16.5316 1/A FBSC none
REM MP grid 3 3 3 Offset 0.000 0.000 0.000 No. kpts 6 Spacing 0.07
REM Total runtime: 29906.4 s
REM Overall efficiency: 98.2222 %
REM
REM
REM
REM compiler GCC version 4.9.2
REM options -cpp -iprefix /lustre/shared/ucl/apps/gcc/4.9.2/bin/../lib/gcc/x86_64-unknown-linux-gnu/4.9.2/ -mtune=corei7 -march=x86-64 -g -Og
REM COMMAND_LINE
REM seed -587862925 876314961 -392629677 1377020772 1719987241 -205073259 -1145701351 870769746 581860899 -536344730 -1069115960 2002731243
REM
REM S 3|1.8|5|6|7|30:31:32(qc=5)
REM O 2|1.5|12|13|15|20:21(qc=5)
REM Li 1|1.3|8|9|10|10U:20(qc=5)
REM Fe 3|2.2|2.0|1.0|8|9|10|40:41:32(qc=5)
REM 
CELL 1.54180    6.82675    6.82675    6.82675   74.82763   74.82763   74.82763
LATT -1
SFAC Li O  S  Fe 
Li     1 -0.3760350000000  0.0954350000000 -0.2935630000000 1.0   0.02
Li     1 -0.2935630000000 -0.3760350000000  0.0954350000000 1.0   0.02
Li     1  0.0954350000000 -0.2935630000000 -0.3760350000000 1.0   0.02
Li     1 -0.3803770000000  0.0842680000000  0.0950970000000 1.0   0.02
Li     1  0.0950970000000 -0.3803770000000  0.0842680000000 1.0   0.02
Li     1  0.0842680000000  0.0950970000000 -0.3803770000000 1.0   0.02
O      2 -0.1174570000000 -0.0389440000000  0.5645380000000 1.0  -0.17
O      2  0.5645380000000 -0.1174570000000 -0.0389440000000 1.0  -0.17
O      2 -0.0389440000000  0.5645380000000 -0.1174570000000 1.0  -0.17
O      2 -0.1594460000000  0.2270800000000  0.0308970000000 1.0  -0.19
O      2  0.0308970000000 -0.1594460000000  0.2270800000000 1.0  -0.19
O      2  0.2270800000000  0.0308970000000 -0.1594460000000 1.0  -0.19
S      3 -0.1325080000000  0.4129270000000  0.4192380000000 1.0  -0.17
S      3  0.4192380000000 -0.1325080000000  0.4129270000000 1.0  -0.17
S      3  0.4129270000000  0.4192380000000 -0.1325080000000 1.0  -0.17
Fe     4  0.1056850000000  0.2900240000000 -0.0868970000000 1.0  -2.31
Fe     4 -0.0868970000000  0.1056850000000  0.2900240000000 1.0  -2.31
Fe     4  0.2900240000000 -0.0868970000000  0.1056850000000 1.0  -2.31
Fe     4 -0.2240890000000  0.4581770000000 -0.2371660000000 1.0  -3.21
Fe     4 -0.2371660000000 -0.2240890000000  0.4581770000000 1.0  -3.21
Fe     4  0.4581770000000 -0.2371660000000 -0.2240890000000 1.0  -3.21
END
