TITL LFSO-Li5FeS3O-200910-092006-a85a1c 0.0597 444.950295 -6.42496884E+003 8.00000 8.13161 20 (Pmn21) n - 1
REM
REM Run started: Thu, 10 Sep 2020 13:03:54 +0100 in /lustre/scratch/uccabz1/launch_tmp/launcher_2020-09-10-08-20-03-682583
REM CASTEP 20.1 from code version af48c487+ pr-geom-scf-spinfix Tue Jun 2 15:39:59 2020 +0100
REM Functional Perdew Burke Ernzerhof Relativity Koelling-Harmon Dispersion off
REM Cut-off 340.0000 eV Grid scale 1.7500 Gmax 16.5316 1/A FBSC none
REM MP grid 2 4 2 Offset 0.000 0.000 0.000 No. kpts 2 Spacing 0.07
REM Total runtime: 13488.9 s
REM Overall efficiency: 84.2727 %
REM
REM
REM
REM compiler GCC version 4.9.2
REM options -cpp -iprefix /lustre/shared/ucl/apps/gcc/4.9.2/bin/../lib/gcc/x86_64-unknown-linux-gnu/4.9.2/ -mtune=corei7 -march=x86-64 -g -Og
REM COMMAND_LINE
REM seed -1808484196 -2051151584 1238611202 2095957092 1341493683 337736185 -938180636 932318982 62368358 283025788 -2102321520 -541181497
REM
REM S 3|1.8|5|6|7|30:31:32(qc=5)
REM O 2|1.5|12|13|15|20:21(qc=5)
REM Li 1|1.3|8|9|10|10U:20(qc=5)
REM Fe 3|2.2|2.0|1.0|8|9|10|40:41:32(qc=5)
REM 
CELL 1.54180   10.75394    3.85908   10.72161   90.00000   90.00000   90.00000
LATT -1
SFAC Li O  S  Fe 
Li     1 -0.1965240000000  0.2131440000000  0.1271890000000 1.0   0.05
Li     1  0.3034760000000 -0.2131440000000  0.3728110000000 1.0   0.05
Li     1  0.3034760000000 -0.2131440000000 -0.3728110000000 1.0   0.05
Li     1 -0.1965240000000  0.2131440000000 -0.1271890000000 1.0   0.05
Li     1 -0.0059370000000 -0.2194500000000  0.3168790000000 1.0  -0.04
Li     1 -0.5059370000000  0.2194500000000  0.1831210000000 1.0  -0.04
Li     1 -0.5059370000000  0.2194500000000 -0.1831210000000 1.0  -0.04
Li     1 -0.0059370000000 -0.2194500000000 -0.3168790000000 1.0  -0.04
Li     1  0.3444560000000  0.2105730000000  0.0000000000000 1.0  -0.01
Li     1 -0.1555440000000 -0.2105730000000  0.5000000000000 1.0  -0.01
O      2  0.5326780000000  0.2215610000000  0.0000000000000 1.0   0.24
O      2  0.0326780000000 -0.2215610000000 -0.5000000000000 1.0   0.24
S      3  0.3813980000000 -0.2802780000000  0.1677400000000 1.0   0.16
S      3 -0.1186020000000  0.2802780000000  0.3322600000000 1.0   0.16
S      3 -0.1186020000000  0.2802780000000 -0.3322600000000 1.0   0.16
S      3  0.3813980000000 -0.2802780000000 -0.1677400000000 1.0   0.16
S      3 -0.2430050000000 -0.2848500000000  0.0000000000000 1.0   0.12
S      3  0.2569950000000  0.2848500000000 -0.5000000000000 1.0   0.12
Fe     4 -0.4639160000000 -0.2781520000000  0.0000000000000 1.0   3.31
Fe     4  0.0360840000000  0.2781520000000  0.5000000000000 1.0   3.31
END
