TITL LFSO-Li4Fe3S4O-201002-161259-2e2852 0.0124 234.768775 -5.04384664E+003 -11.5263 11.6767 12 (P1) n - 1
REM
REM Run started: Sat, 03 Oct 2020 00:32:00 +0100 in /scratch/scratch/mmm0366/launch_tmp/launcher_2020-10-02-15-12-58-220378
REM CASTEP 19.11| from code version Version unavailable
REM Functional Perdew Burke Ernzerhof Relativity Koelling-Harmon Dispersion off
REM Cut-off 340.0000 eV Grid scale 1.7500 Gmax 16.5316 1/A FBSC none
REM MP grid 5 4 3 Offset 0.000 0.000 0.000 No. kpts 30 Spacing 0.07
REM Total runtime: 34113.8 s
REM Overall efficiency: 97.8 %
REM
REM
REM
REM compiler GCC version 4.9.2
REM options -cpp -iprefix /scratch/UCL/applications/gcc/4.9.2/bin/../lib/gcc/x86_64-unknown-linux-gnu/4.9.2/ -mtune=corei7 -march=x86-64 -g -O2
REM COMMAND_LINE
REM seed -968433616 -28676541 -1419058956 -146626939 2146323591 1872123798 782309650 -168730891 1716199617 1538264545 363901847 -1589111677
REM
REM S 3|1.8|5|6|7|30:31:32(qc=5)
REM O 2|1.5|12|13|15|20:21(qc=5)
REM Li 1|1.3|8|9|10|10U:20(qc=5)
REM Fe 3|2.2|2.0|1.0|8|9|10|40:41:32(qc=5)
REM 
CELL 1.54180    6.89204   10.33909    8.56474  124.92050   74.10889  147.68983
LATT -1
SFAC Li O  S  Fe 
Li     1  0.1211220000000  0.2923120000000  0.2262430000000 1.0   0.07
Li     1 -0.1211220000000 -0.2923120000000 -0.2262430000000 1.0   0.07
Li     1  0.1931520000000 -0.2926340000000  0.2503140000000 1.0  -0.07
Li     1 -0.1931520000000  0.2926340000000 -0.2503140000000 1.0  -0.07
O      2  0.0000000000000  0.0000000000000  0.0000000000000 1.0  -0.36
S      3  0.0249140000000 -0.6947590000000 -0.0427600000000 1.0  -0.33
S      3 -0.0249140000000  0.6947590000000  0.0427600000000 1.0  -0.33
S      3  0.0502290000000 -0.1654030000000 -0.4550800000000 1.0  -0.22
S      3 -0.0502290000000  0.1654030000000  0.4550800000000 1.0  -0.22
Fe     4 -0.2538640000000 -0.2065460000000  0.1145180000000 1.0  -3.40
Fe     4  0.2538640000000  0.2065460000000 -0.1145180000000 1.0  -3.40
Fe     4  0.0000000000000  0.0000000000000 -0.5000000000000 1.0  -3.28
END
