TITL LFSO-Li3Fe3SO5-201002-020045-0f72ce -0.0404 131.562496 -5.68426663E+003 8.72182 8.91259 12 (P1) n - 1
REM
REM Run started: Fri, 02 Oct 2020 03:59:36 +0100 in /scratch/scratch/mmm0366/launch_tmp/launcher_2020-10-02-01-00-44-053119
REM CASTEP 19.11| from code version Version unavailable
REM Functional Perdew Burke Ernzerhof Relativity Koelling-Harmon Dispersion off
REM Cut-off 340.0000 eV Grid scale 1.7500 Gmax 16.5316 1/A FBSC none
REM MP grid 4 4 4 Offset 0.000 0.000 0.000 No. kpts 20 Spacing 0.07
REM Total runtime: 7766.38 s
REM Overall efficiency: 70.625 %
REM
REM
REM
REM compiler GCC version 4.9.2
REM options -cpp -iprefix /scratch/UCL/applications/gcc/4.9.2/bin/../lib/gcc/x86_64-unknown-linux-gnu/4.9.2/ -mtune=corei7 -march=x86-64 -g -O2
REM COMMAND_LINE
REM seed -369969232 31576567 1334666310 1251850538 482978866 -2131007830 -313763282 2046216397 -1136243800 -1586418543 -2017605152 281268896
REM
REM S 3|1.8|5|6|7|30:31:32(qc=5)
REM O 2|1.5|12|13|15|20:21(qc=5)
REM Li 1|1.3|8|9|10|10U:20(qc=5)
REM Fe 3|2.2|2.0|1.0|8|9|10|40:41:32(qc=5)
REM 
CELL 1.54180    5.97885    5.61143    5.39347  103.59848  106.66044  120.95423
LATT -1
SFAC Li O  S  Fe 
Li     1 -0.1324710000000  0.2512660000000  0.5677700000000 1.0   0.00
Li     1  0.2997590000000 -0.3165040000000 -0.5677700000000 1.0   0.00
Li     1 -0.6104150000000 -0.1720780000000  0.0000000000000 1.0  -0.02
O      2 -0.2524400000000 -0.4661960000000 -0.3733590000000 1.0   0.16
O      2  0.1209190000000 -0.0928370000000  0.3733590000000 1.0   0.16
O      2 -0.3998020000000 -0.1898760000000  0.3255860000000 1.0   0.34
O      2  0.2746120000000  0.4845380000000 -0.3255860000000 1.0   0.34
O      2  0.3158210000000  0.1797510000000  0.0000000000000 1.0   0.13
S      3 -0.1934320000000  0.2367050000000  0.0000000000000 1.0   0.05
Fe     4 -0.2934370000000 -0.4238970000000  0.2613690000000 1.0   1.99
Fe     4  0.4451940000000  0.3147340000000 -0.2613690000000 1.0   1.99
Fe     4 -0.0527840000000 -0.0985140000000  0.0000000000000 1.0   3.57
END
