TITL LFSO-Li2Fe2S2O-200913-124937-7d345c 0.0550 445.471988 -9.51094455E+003 -7.61098 8.68640 21 (P2) n - 1
REM
REM Run started: Mon, 14 Sep 2020 18:37:32 +0100 in /lustre/scratch/uccabz1/launch_tmp/launcher_2020-09-13-11-49-34-668774
REM CASTEP 20.1 from code version af48c487+ pr-geom-scf-spinfix Tue Jun 2 15:39:59 2020 +0100
REM Functional Perdew Burke Ernzerhof Relativity Koelling-Harmon Dispersion off
REM Cut-off 340.0000 eV Grid scale 1.7500 Gmax 16.5316 1/A FBSC none
REM MP grid 4 2 2 Offset 0.000 0.000 0.000 No. kpts 4 Spacing 0.07
REM Total runtime: 117562 s
REM Overall efficiency: 98.5833 %
REM
REM
REM
REM compiler GCC version 4.9.2
REM options -cpp -iprefix /lustre/shared/ucl/apps/gcc/4.9.2/bin/../lib/gcc/x86_64-unknown-linux-gnu/4.9.2/ -mtune=corei7 -march=x86-64 -g -Og
REM COMMAND_LINE
REM seed -434847621 1914471283 1006836507 -1757015676 1374072768 605887963 -1156950015 -1799971629 -1137517259 -322409272 -1337664539 -837901534
REM
REM S 3|1.8|5|6|7|30:31:32(qc=5)
REM O 2|1.5|12|13|15|20:21(qc=5)
REM Li 1|1.3|8|9|10|10U:20(qc=5)
REM Fe 3|2.2|2.0|1.0|8|9|10|40:41:32(qc=5)
REM 
CELL 1.54180    3.91159    9.49095   12.01878   90.00000   90.00000   86.74175
LATT -1
SFAC Li O  S  Fe 
Li     1 -0.2252810000000 -0.0850250000000  0.3505070000000 1.0   0.00
Li     1  0.2252810000000  0.0850250000000  0.3505070000000 1.0   0.00
Li     1  0.2502550000000 -0.3591200000000  0.3623690000000 1.0   0.04
Li     1 -0.2502550000000  0.3591200000000  0.3623690000000 1.0   0.04
Li     1  0.2259720000000  0.1384200000000  0.1324570000000 1.0  -0.02
Li     1 -0.2259720000000 -0.1384200000000  0.1324570000000 1.0  -0.02
O      2  0.2270750000000  0.0910060000000 -0.2767500000000 1.0  -0.12
O      2 -0.2270750000000 -0.0910060000000 -0.2767500000000 1.0  -0.12
O      2  0.0000000000000  0.0000000000000  0.5203890000000 1.0  -0.06
S      3  0.2807410000000 -0.1668600000000  0.2538910000000 1.0   0.00
S      3 -0.2807410000000  0.1668600000000  0.2538910000000 1.0   0.00
S      3 -0.3927870000000  0.0985400000000 -0.0560530000000 1.0  -0.14
S      3  0.3927870000000 -0.0985400000000 -0.0560530000000 1.0  -0.14
S      3  0.2421130000000 -0.3281020000000 -0.3105870000000 1.0  -0.02
S      3 -0.2421130000000  0.3281020000000 -0.3105870000000 1.0  -0.02
Fe     4  0.3064280000000 -0.1167220000000 -0.2432520000000 1.0  -2.59
Fe     4 -0.3064280000000  0.1167220000000 -0.2432520000000 1.0  -2.59
Fe     4 -0.0464050000000 -0.1658570000000  0.5934870000000 1.0  -0.39
Fe     4  0.0464050000000  0.1658570000000  0.5934870000000 1.0  -0.39
Fe     4  0.2441600000000 -0.4536700000000 -0.4474000000000 1.0  -0.55
Fe     4 -0.2441600000000  0.4536700000000 -0.4474000000000 1.0  -0.55
END
