TITL LFSO-Li2Fe3SO3-200912-150740-a5a226 0.0805 214.638586 -9.21306519E+003 -11.0812 12.0039 18 (Pc) n - 1
REM
REM Run started: Sun, 13 Sep 2020 02:19:45 +0100 in /lustre/scratch/uccabz1/launch_tmp/launcher_2020-09-12-14-07-38-746467
REM CASTEP 20.1 from code version af48c487+ pr-geom-scf-spinfix Tue Jun 2 15:39:59 2020 +0100
REM Functional Perdew Burke Ernzerhof Relativity Koelling-Harmon Dispersion off
REM Cut-off 340.0000 eV Grid scale 1.7500 Gmax 16.5316 1/A FBSC none
REM MP grid 6 2 2 Offset 0.000 0.000 0.000 No. kpts 6 Spacing 0.07
REM Total runtime: 41620.4 s
REM Overall efficiency: 91.3 %
REM
REM
REM
REM compiler GCC version 4.9.2
REM options -cpp -iprefix /lustre/shared/ucl/apps/gcc/4.9.2/bin/../lib/gcc/x86_64-unknown-linux-gnu/4.9.2/ -mtune=corei7 -march=x86-64 -g -Og
REM COMMAND_LINE
REM seed -1260885308 653661192 -2124781538 -1549740546 -921535782 -101965757 1374431539 -1958053145 183107762 123888167 1613823668 -1897523355
REM
REM S 3|1.8|5|6|7|30:31:32(qc=5)
REM O 2|1.5|12|13|15|20:21(qc=5)
REM Li 1|1.3|8|9|10|10U:20(qc=5)
REM Fe 3|2.2|2.0|1.0|8|9|10|40:41:32(qc=5)
REM 
CELL 1.54180    2.94007    8.17593    9.60465   90.00000   90.00000  111.61602
LATT -1
SFAC Li O  S  Fe 
Li     1  0.2197810000000  0.0776510000000  0.3432250000000 1.0   0.03
Li     1 -0.2802190000000  0.0776510000000 -0.3432250000000 1.0   0.03
Li     1  0.0185640000000 -0.1147140000000 -0.1547930000000 1.0  -0.00
Li     1  0.5185640000000 -0.1147140000000  0.1547930000000 1.0  -0.00
O      2  0.1912350000000  0.0621870000000  0.1447170000000 1.0  -0.04
O      2 -0.3087650000000  0.0621870000000 -0.1447170000000 1.0  -0.04
O      2 -0.4551600000000 -0.0914480000000  0.3693710000000 1.0  -0.18
O      2  0.0448400000000 -0.0914480000000 -0.3693710000000 1.0  -0.18
O      2  0.3211010000000 -0.3059320000000 -0.1570590000000 1.0   0.01
O      2 -0.1788990000000 -0.3059320000000  0.1570590000000 1.0   0.01
S      3  0.6205210000000  0.4989720000000  0.2172670000000 1.0   0.08
S      3  0.1205210000000  0.4989720000000 -0.2172670000000 1.0   0.08
Fe     4  0.3980060000000  0.2697620000000  0.0829110000000 1.0  -0.64
Fe     4 -0.1019940000000  0.2697620000000 -0.0829110000000 1.0  -0.64
Fe     4 -0.4023320000000  0.4789240000000 -0.3893100000000 1.0  -1.95
Fe     4  0.0976680000000  0.4789240000000  0.3893100000000 1.0  -1.95
Fe     4 -0.1205370000000 -0.2555750000000  0.3969690000000 1.0  -2.85
Fe     4 -0.6205370000000 -0.2555750000000 -0.3969690000000 1.0  -2.85
END
