TITL LFSO-Li6FeS2O2-200920-215941-91e943 -0.0102 272.259910 -7.09378792E+003 8.00000 8.14882 22 (Fdd2) n - 1
REM
REM Run started: Sun, 20 Sep 2020 23:53:36 +0100 in /lustre/scratch/uccabz1/launch_tmp/launcher_2020-09-20-20-59-39-530228
REM CASTEP 20.1 from code version af48c487+ pr-geom-scf-spinfix Tue Jun 2 15:39:59 2020 +0100
REM Functional Perdew Burke Ernzerhof Relativity Koelling-Harmon Dispersion off
REM Cut-off 340.0000 eV Grid scale 1.7500 Gmax 16.5316 1/A FBSC none
REM MP grid 3 3 3 Offset 0.000 0.000 0.000 No. kpts 8 Spacing 0.07
REM Total runtime: 7254.02 s
REM Overall efficiency: 97.3333 %
REM
REM
REM
REM compiler GCC version 4.9.2
REM options -cpp -iprefix /lustre/shared/ucl/apps/gcc/4.9.2/bin/../lib/gcc/x86_64-unknown-linux-gnu/4.9.2/ -mtune=corei7 -march=x86-64 -g -Og
REM COMMAND_LINE
REM seed -192758075 1595197663 -679652535 189888394 222071080 -720838479 -644167269 2140676343 -1732291500 -1515494471 -916967217 1226212251
REM
REM S 3|1.8|5|6|7|30:31:32(qc=5)
REM O 2|1.5|12|13|15|20:21(qc=5)
REM Li 1|1.3|8|9|10|10U:20(qc=5)
REM Fe 3|2.2|2.0|1.0|8|9|10|40:41:32(qc=5)
REM 
CELL 1.54180    7.02390    7.02390    7.26502  104.14529  104.14529  119.63403
LATT -1
SFAC Li O  S  Fe 
Li     1 -0.2371150000000 -0.5571490000000 -0.1125760000000 1.0  -0.03
Li     1 -0.4445730000000 -0.1245390000000  0.1125760000000 1.0  -0.03
Li     1 -0.3071490000000 -0.4871150000000 -0.6125760000000 1.0  -0.03
Li     1  0.1254610000000 -0.6945730000000  0.6125760000000 1.0  -0.03
Li     1  0.4881220000000 -0.1356830000000 -0.2935390000000 1.0   0.02
Li     1  0.1578570000000 -0.2183390000000  0.2935390000000 1.0   0.02
Li     1  0.1143170000000  0.2381220000000  0.2064610000000 1.0   0.02
Li     1  0.0316610000000 -0.0921430000000 -0.2064610000000 1.0   0.02
Li     1  0.5413740000000  0.5309600000000 -0.3427330000000 1.0  -0.02
Li     1 -0.1263080000000 -0.1158930000000  0.3427330000000 1.0  -0.02
Li     1 -0.2190400000000  0.2913740000000  0.1572670000000 1.0  -0.02
Li     1  0.1341070000000 -0.3763080000000 -0.1572670000000 1.0  -0.02
O      2 -0.1763980000000 -0.4561280000000 -0.3329520000000 1.0   0.12
O      2 -0.1231760000000  0.1565540000000  0.3329520000000 1.0   0.12
O      2 -0.2061280000000 -0.4263980000000  0.1670480000000 1.0   0.12
O      2  0.4065540000000 -0.3731760000000 -0.1670480000000 1.0   0.12
S      3  0.3198720000000  0.1002220000000 -0.3550720000000 1.0   0.10
S      3  0.4552940000000 -0.3250560000000  0.3550720000000 1.0   0.10
S      3  0.3502220000000  0.0698720000000  0.1449280000000 1.0   0.10
S      3 -0.0750560000000  0.2052940000000 -0.1449280000000 1.0   0.10
Fe     4 -0.3148720000000  0.1851280000000  0.5000000000000 1.0   3.60
Fe     4  0.4351280000000  0.4351280000000  0.0000000000000 1.0   3.60
END
