TITL LFSO-Li3FeS2O-200911-195223-f2a8ce 0.0227 227.436185 -5.01698634E+003 7.00234 7.22917 14 (Cm) n - 1
REM
REM Run started: Fri, 11 Sep 2020 22:12:23 +0100 in /lustre/scratch/uccabz1/launch_tmp/launcher_2020-09-11-18-52-21-385659
REM CASTEP 20.1 from code version af48c487+ pr-geom-scf-spinfix Tue Jun 2 15:39:59 2020 +0100
REM Functional Perdew Burke Ernzerhof Relativity Koelling-Harmon Dispersion off
REM Cut-off 340.0000 eV Grid scale 1.7500 Gmax 16.5316 1/A FBSC none
REM MP grid 4 2 2 Offset 0.000 0.000 0.000 No. kpts 6 Spacing 0.07
REM Total runtime: 8696.91 s
REM Overall efficiency: 96.6667 %
REM
REM
REM
REM compiler GCC version 4.9.2
REM options -cpp -iprefix /lustre/shared/ucl/apps/gcc/4.9.2/bin/../lib/gcc/x86_64-unknown-linux-gnu/4.9.2/ -mtune=corei7 -march=x86-64 -g -Og
REM COMMAND_LINE
REM seed -227185435 -1346391556 -1160521025 285237366 -1169955029 -361916254 1399402938 361125498 291509066 917011974 -469923243 519987630
REM
REM S 3|1.8|5|6|7|30:31:32(qc=5)
REM O 2|1.5|12|13|15|20:21(qc=5)
REM Li 1|1.3|8|9|10|10U:20(qc=5)
REM Fe 3|2.2|2.0|1.0|8|9|10|40:41:32(qc=5)
REM 
CELL 1.54180    3.78609    8.43978    8.43978  120.54827   84.23523   84.23523
LATT -1
SFAC Li O  S  Fe 
Li     1 -0.1791740000000 -0.4650830000000 -0.2035170000000 1.0  -0.01
Li     1 -0.1791740000000 -0.2035170000000 -0.4650830000000 1.0  -0.01
Li     1 -0.5778620000000  0.2428110000000 -0.4027700000000 1.0  -0.01
Li     1 -0.5778620000000 -0.4027700000000  0.2428110000000 1.0  -0.01
Li     1  0.6212560000000 -0.0022310000000  0.2583480000000 1.0  -0.04
Li     1  0.6212560000000  0.2583480000000 -0.0022310000000 1.0  -0.04
O      2 -0.2904810000000 -0.1914110000000  0.0012040000000 1.0   0.25
O      2 -0.2904810000000  0.0012040000000 -0.1914110000000 1.0   0.25
S      3 -0.0283260000000  0.2537470000000  0.4009730000000 1.0   0.03
S      3 -0.0283260000000  0.4009730000000  0.2537470000000 1.0   0.03
S      3  0.2989280000000 -0.0806280000000  0.4778140000000 1.0   0.12
S      3  0.2989280000000  0.4778140000000 -0.0806280000000 1.0   0.12
Fe     4  0.2185170000000 -0.0222650000000 -0.2081000000000 1.0   3.16
Fe     4  0.2185170000000 -0.2081000000000 -0.0222650000000 1.0   3.16
END
