TITL LFSO-LiFe3S4O-200909-113736-fe6d35 0.0452 307.813321 -8.88759943E+003 0.367654E-01 0.119829 18 (P-1) n - 1
REM
REM Run started: Thu, 10 Sep 2020 18:37:39 +0100 in /lustre/scratch/uccabz1/launch_tmp/launcher_2020-09-10-08-38-49-129790
REM CASTEP 20.1 from code version af48c487+ pr-geom-scf-spinfix Tue Jun 2 15:39:59 2020 +0100
REM Functional Perdew Burke Ernzerhof Relativity Koelling-Harmon Dispersion off
REM Cut-off 340.0000 eV Grid scale 1.7500 Gmax 16.5316 1/A FBSC none
REM MP grid 5 3 2 Offset 0.000 0.000 0.000 No. kpts 15 Spacing 0.07
REM Total runtime: 110587 s
REM Overall efficiency: 98.5455 %
REM
REM
REM
REM compiler GCC version 4.9.2
REM options -cpp -iprefix /lustre/shared/ucl/apps/gcc/4.9.2/bin/../lib/gcc/x86_64-unknown-linux-gnu/4.9.2/ -mtune=corei7 -march=x86-64 -g -Og
REM COMMAND_LINE
REM seed -666550147 2116509660 -717480794 -225234841 355387000 59057461 -1797324094 -58407809 -8151093 489544508 -2047103889 -293096670
REM
REM S 3|1.8|5|6|7|30:31:32(qc=5)
REM O 2|1.5|12|13|15|20:21(qc=5)
REM Li 1|1.3|8|9|10|10U:20(qc=5)
REM Fe 3|2.2|2.0|1.0|8|9|10|40:41:32(qc=5)
REM 
CELL 1.54180    3.55519    6.83554   13.20073   76.54035   91.68708   99.37030
LATT -1
SFAC Li O  S  Fe 
Li     1 -0.2738510000000  0.3413270000000  0.2705870000000 1.0   0.00
Li     1  0.2738510000000 -0.3413270000000 -0.2705870000000 1.0   0.00
O      2 -0.4066960000000 -0.4444170000000  0.1697590000000 1.0   0.01
O      2  0.4066960000000  0.4444170000000 -0.1697590000000 1.0   0.01
S      3 -0.6039150000000  0.0826570000000 -0.4217430000000 1.0   0.00
S      3  0.6039150000000 -0.0826570000000  0.4217430000000 1.0   0.00
S      3  0.2300190000000  0.4543370000000  0.3929100000000 1.0  -0.00
S      3 -0.2300190000000 -0.4543370000000 -0.3929100000000 1.0  -0.00
S      3  0.1638800000000  0.1267990000000  0.2320880000000 1.0  -0.00
S      3 -0.1638800000000 -0.1267990000000 -0.2320880000000 1.0  -0.00
S      3 -0.2471000000000  0.3122300000000  0.0242360000000 1.0  -0.00
S      3  0.2471000000000 -0.3122300000000 -0.0242360000000 1.0  -0.00
Fe     4 -0.2904750000000  0.3672940000000  0.4881570000000 1.0   0.01
Fe     4  0.2904750000000 -0.3672940000000 -0.4881570000000 1.0   0.01
Fe     4  0.3278250000000  0.4019250000000  0.1041490000000 1.0   0.02
Fe     4 -0.3278250000000 -0.4019250000000 -0.1041490000000 1.0   0.02
Fe     4  0.1624210000000  0.1144910000000  0.4129460000000 1.0  -0.01
Fe     4 -0.1624210000000 -0.1144910000000 -0.4129460000000 1.0  -0.01
END
