TITL LFSO-Li3Fe3S2O4-200929-154713-b1bc15 0.1402 302.660583 -1.10957096E+004 12.1736 13.4868 24 (R3) n - 1
REM
REM Run started: Wed, 30 Sep 2020 12:21:27 +0100 in /lustre/scratch/uccabz1/launch_tmp/launcher_2020-09-30-08-31-26-503315
REM CASTEP 20.1 from code version af48c487+ pr-geom-scf-spinfix Tue Jun 2 15:39:59 2020 +0100
REM Functional Perdew Burke Ernzerhof Relativity Koelling-Harmon Dispersion off
REM Cut-off 340.0000 eV Grid scale 1.7500 Gmax 16.5316 1/A FBSC none
REM MP grid 3 3 3 Offset 0.000 0.000 0.000 No. kpts 6 Spacing 0.07
REM Total runtime: 69348.3 s
REM Overall efficiency: 97.6667 %
REM
REM
REM
REM compiler GCC version 4.9.2
REM options -cpp -iprefix /lustre/shared/ucl/apps/gcc/4.9.2/bin/../lib/gcc/x86_64-unknown-linux-gnu/4.9.2/ -mtune=corei7 -march=x86-64 -g -Og
REM COMMAND_LINE
REM seed -59498607 967779558 1933597669 2069182352 -840316951 -351605062 -965983304 -785706692 -51619327 380680107 1739653898 1858606408
REM
REM S 3|1.8|5|6|7|30:31:32(qc=5)
REM O 2|1.5|12|13|15|20:21(qc=5)
REM Li 1|1.3|8|9|10|10U:20(qc=5)
REM Fe 3|2.2|2.0|1.0|8|9|10|40:41:32(qc=5)
REM 
CELL 1.54180    6.74265    6.74265    6.74265   84.56928   84.56928   84.56928
LATT -1
SFAC Li O  S  Fe 
Li     1 -0.5336030000000  0.2413880000000 -0.1039510000000 1.0  -0.03
Li     1 -0.1039510000000 -0.5336030000000  0.2413880000000 1.0  -0.03
Li     1  0.2413880000000 -0.1039510000000 -0.5336030000000 1.0  -0.03
Li     1 -0.5402940000000  0.1752380000000  0.4558990000000 1.0  -0.02
Li     1  0.4558990000000 -0.5402940000000  0.1752380000000 1.0  -0.02
Li     1  0.1752380000000  0.4558990000000 -0.5402940000000 1.0  -0.02
O      2 -0.3692920000000  0.1673650000000 -0.3387470000000 1.0   0.11
O      2 -0.3387470000000 -0.3692920000000  0.1673650000000 1.0   0.11
O      2  0.1673650000000 -0.3387470000000 -0.3692920000000 1.0   0.11
O      2  0.1716130000000  0.5218770000000  0.1728930000000 1.0   0.27
O      2  0.1728930000000  0.1716130000000  0.5218770000000 1.0   0.27
O      2  0.5218770000000  0.1728930000000  0.1716130000000 1.0   0.27
O      2 -0.1480370000000 -0.1480370000000 -0.1480370000000 1.0   0.08
O      2  0.0758030000000  0.0758030000000  0.0758030000000 1.0  -0.25
S      3  0.3215070000000 -0.1154330000000 -0.0388660000000 1.0  -0.07
S      3 -0.0388660000000  0.3215070000000 -0.1154330000000 1.0  -0.07
S      3 -0.1154330000000 -0.0388660000000  0.3215070000000 1.0  -0.07
S      3 -0.3788300000000 -0.3788300000000 -0.3788300000000 1.0   0.03
Fe     4 -0.3998690000000 -0.0850890000000  0.1486370000000 1.0   2.64
Fe     4  0.1486370000000 -0.3998690000000 -0.0850890000000 1.0   2.64
Fe     4 -0.0850890000000  0.1486370000000 -0.3998690000000 1.0   2.64
Fe     4 -0.2353650000000 -0.4053760000000 -0.0933740000000 1.0   1.19
Fe     4 -0.0933740000000 -0.2353650000000 -0.4053760000000 1.0   1.19
Fe     4 -0.4053760000000 -0.0933740000000 -0.2353650000000 1.0   1.19
END
