TITL LFSO-Li4Fe2S3O2-200911-053654-a01004 0.0246 374.700045 -8.62872622E+003 8.00037 9.13158 22 (C2) n - 1
REM
REM Run started: Sat, 12 Sep 2020 02:15:40 +0100 in /lustre/scratch/uccabz1/launch_tmp/launcher_2020-09-11-04-36-52-666989
REM CASTEP 20.1 from code version af48c487+ pr-geom-scf-spinfix Tue Jun 2 15:39:59 2020 +0100
REM Functional Perdew Burke Ernzerhof Relativity Koelling-Harmon Dispersion off
REM Cut-off 340.0000 eV Grid scale 1.7500 Gmax 16.5316 1/A FBSC none
REM MP grid 3 3 3 Offset 0.000 0.000 0.000 No. kpts 10 Spacing 0.07
REM Total runtime: 85014.2 s
REM Overall efficiency: 75.3333 %
REM
REM
REM
REM compiler GCC version 4.9.2
REM options -cpp -iprefix /lustre/shared/ucl/apps/gcc/4.9.2/bin/../lib/gcc/x86_64-unknown-linux-gnu/4.9.2/ -mtune=corei7 -march=x86-64 -g -Og
REM COMMAND_LINE
REM seed -715802060 272491070 -1579588715 876612423 -979912776 -271283321 -1960279400 -2022443298 -779347847 970796313 156685224 -1579701519
REM
REM S 3|1.8|5|6|7|30:31:32(qc=5)
REM O 2|1.5|12|13|15|20:21(qc=5)
REM Li 1|1.3|8|9|10|10U:20(qc=5)
REM Fe 3|2.2|2.0|1.0|8|9|10|40:41:32(qc=5)
REM 
CELL 1.54180   10.95704    7.62353    9.51540   58.10987   42.68146   44.05820
LATT -1
SFAC Li O  S  Fe 
Li     1  0.0130180000000 -0.1991940000000 -0.0358490000000 1.0  -0.02
Li     1  0.1861760000000 -0.1991940000000  0.0358490000000 1.0  -0.02
Li     1 -0.3344770000000 -0.0088160000000  0.3677310000000 1.0   0.01
Li     1  0.3432940000000 -0.0088160000000 -0.3677310000000 1.0   0.01
Li     1  0.4442210000000  0.0859500000000 -0.1556200000000 1.0  -0.00
Li     1  0.4698290000000  0.0859500000000  0.1556200000000 1.0  -0.00
Li     1  0.3451890000000 -0.2138980000000  0.4965250000000 1.0  -0.01
Li     1 -0.1312910000000 -0.2138980000000 -0.4965250000000 1.0  -0.01
O      2  0.5983770000000 -0.1499880000000  0.3017740000000 1.0  -0.04
O      2 -0.4483890000000 -0.1499880000000 -0.3017740000000 1.0  -0.04
O      2 -0.0418850000000 -0.2255320000000  0.2252680000000 1.0   0.08
O      2  0.2674170000000 -0.2255320000000 -0.2252680000000 1.0   0.08
S      3  0.2032440000000  0.0365710000000  0.2457150000000 1.0   0.08
S      3 -0.2398150000000  0.0365710000000 -0.2457150000000 1.0   0.08
S      3  0.1243660000000  0.3409320000000 -0.5211640000000 1.0  -0.01
S      3 -0.4652980000000  0.3409320000000  0.5211640000000 1.0  -0.01
S      3 -0.1616490000000 -0.4291240000000  0.1779230000000 1.0  -0.12
S      3 -0.4092280000000 -0.4291240000000 -0.1779230000000 1.0  -0.12
Fe     4 -0.4803540000000  0.4571840000000 -0.2678890000000 1.0   2.01
Fe     4  0.0231690000000  0.4571840000000  0.2678890000000 1.0   2.01
Fe     4 -0.1611150000000  0.2662580000000  0.3998240000000 1.0   2.03
Fe     4 -0.1051430000000  0.2662580000000 -0.3998240000000 1.0   2.03
END
