TITL LFSO-Li3Fe3SO5-200926-075356-21b4a2 0.0010 361.341549 -1.13675605E+004 -16.0219 16.5894 24 (R3) n - 1
REM
REM Run started: Sat, 26 Sep 2020 17:32:29 +0100 in /lustre/scratch/uccabz1/launch_tmp/launcher_2020-09-26-06-53-53-865088
REM CASTEP 20.1 from code version af48c487+ pr-geom-scf-spinfix Tue Jun 2 15:39:59 2020 +0100
REM Functional Perdew Burke Ernzerhof Relativity Koelling-Harmon Dispersion off
REM Cut-off 340.0000 eV Grid scale 1.7500 Gmax 16.5316 1/A FBSC none
REM MP grid 3 3 3 Offset 0.000 0.000 0.000 No. kpts 6 Spacing 0.07
REM Total runtime: 40992.8 s
REM Overall efficiency: 98.7143 %
REM
REM
REM
REM compiler GCC version 4.9.2
REM options -cpp -iprefix /lustre/shared/ucl/apps/gcc/4.9.2/bin/../lib/gcc/x86_64-unknown-linux-gnu/4.9.2/ -mtune=corei7 -march=x86-64 -g -Og
REM COMMAND_LINE
REM seed 1605073707 1859020434 -2077086293 989213573 1046627106 1598210152 -530711342 1353523698 -368489611 1020153268 733342928 -1972340658
REM
REM S 3|1.8|5|6|7|30:31:32(qc=5)
REM O 2|1.5|12|13|15|20:21(qc=5)
REM Li 1|1.3|8|9|10|10U:20(qc=5)
REM Fe 3|2.2|2.0|1.0|8|9|10|40:41:32(qc=5)
REM 
CELL 1.54180    7.52351    7.52351    7.52351   69.58976   69.58976   69.58976
LATT -1
SFAC Li O  S  Fe 
Li     1  0.0583750000000  0.5114600000000 -0.4132090000000 1.0   0.01
Li     1 -0.4132090000000  0.0583750000000  0.5114600000000 1.0   0.01
Li     1  0.5114600000000 -0.4132090000000  0.0583750000000 1.0   0.01
Li     1  0.1622080000000 -0.2670140000000 -0.1986800000000 1.0  -0.01
Li     1 -0.1986800000000  0.1622080000000 -0.2670140000000 1.0  -0.01
Li     1 -0.2670140000000 -0.1986800000000  0.1622080000000 1.0  -0.01
O      2  0.5677280000000 -0.3824020000000  0.2747440000000 1.0  -0.13
O      2  0.2747440000000  0.5677280000000 -0.3824020000000 1.0  -0.13
O      2 -0.3824020000000  0.2747440000000  0.5677280000000 1.0  -0.13
O      2  0.5416880000000 -0.0347580000000  0.3239060000000 1.0  -0.15
O      2  0.3239060000000  0.5416880000000 -0.0347580000000 1.0  -0.15
O      2 -0.0347580000000  0.3239060000000  0.5416880000000 1.0  -0.15
O      2 -0.4186270000000  0.1856710000000 -0.0578650000000 1.0  -0.18
O      2 -0.0578650000000 -0.4186270000000  0.1856710000000 1.0  -0.18
O      2  0.1856710000000 -0.0578650000000 -0.4186270000000 1.0  -0.18
O      2 -0.3812010000000 -0.3812010000000 -0.3812010000000 1.0  -0.28
S      3  0.1082510000000  0.1082510000000  0.1082510000000 1.0  -0.05
S      3 -0.2800100000000 -0.2800100000000 -0.2800100000000 1.0  -0.09
Fe     4  0.3938700000000  0.0920450000000  0.1496850000000 1.0  -2.11
Fe     4  0.1496850000000  0.3938700000000  0.0920450000000 1.0  -2.11
Fe     4  0.0920450000000  0.1496850000000  0.3938700000000 1.0  -2.11
Fe     4 -0.2281550000000 -0.5514640000000  0.3959840000000 1.0  -2.64
Fe     4  0.3959840000000 -0.2281550000000 -0.5514640000000 1.0  -2.64
Fe     4 -0.5514640000000  0.3959840000000 -0.2281550000000 1.0  -2.64
END
