TITL LFSO-Li2FeSO-200912-055739-2b1177 0.0713 169.117666 -4.00867045E+003 6.33986 6.73475 10 (P2) n - 1
REM
REM Run started: Sat, 12 Sep 2020 10:19:14 +0100 in /lustre/scratch/uccabz1/launch_tmp/launcher_2020-09-12-04-57-37-678290
REM CASTEP 20.1 from code version af48c487+ pr-geom-scf-spinfix Tue Jun 2 15:39:59 2020 +0100
REM Functional Perdew Burke Ernzerhof Relativity Koelling-Harmon Dispersion off
REM Cut-off 340.0000 eV Grid scale 1.7500 Gmax 16.5316 1/A FBSC none
REM MP grid 4 4 2 Offset 0.000 0.000 0.000 No. kpts 8 Spacing 0.07
REM Total runtime: 16512.5 s
REM Overall efficiency: 84.25 %
REM
REM
REM
REM compiler GCC version 4.9.2
REM options -cpp -iprefix /lustre/shared/ucl/apps/gcc/4.9.2/bin/../lib/gcc/x86_64-unknown-linux-gnu/4.9.2/ -mtune=corei7 -march=x86-64 -g -Og
REM COMMAND_LINE
REM seed 1789970980 -327366831 614478422 -152554160 -1473269208 2036053516 -392389155 898499299 -647703046 72180521 -1075439874 -2120635606
REM
REM S 3|1.8|5|6|7|30:31:32(qc=5)
REM O 2|1.5|12|13|15|20:21(qc=5)
REM Li 1|1.3|8|9|10|10U:20(qc=5)
REM Fe 3|2.2|2.0|1.0|8|9|10|40:41:32(qc=5)
REM 
CELL 1.54180    4.94838    4.50768    7.58461   90.00000   90.00000   88.44633
LATT -1
SFAC Li O  S  Fe 
Li     1  0.2704950000000  0.2663490000000 -0.3988950000000 1.0  -0.02
Li     1 -0.2704950000000 -0.2663490000000 -0.3988950000000 1.0  -0.02
Li     1  0.2154410000000  0.2290260000000  0.0867550000000 1.0  -0.02
Li     1 -0.2154410000000 -0.2290260000000  0.0867550000000 1.0  -0.02
O      2 -0.2245610000000 -0.7643310000000  0.1268030000000 1.0   0.30
O      2  0.2245610000000  0.7643310000000  0.1268030000000 1.0   0.30
S      3 -0.2415850000000  0.2383810000000 -0.3689160000000 1.0   0.04
S      3  0.2415850000000 -0.2383810000000 -0.3689160000000 1.0   0.04
Fe     4  0.1592420000000 -0.2320470000000  0.3517030000000 1.0   2.87
Fe     4 -0.1592420000000  0.2320470000000  0.3517030000000 1.0   2.87
END
