TITL LFSO-Li3FeSO2-200911-150321-dfafcc 0.0247 115.093203 -2.64279130E+003 3.06684 3.32951 7 (P-1) n - 1
REM
REM Run started: Fri, 11 Sep 2020 16:06:04 +0100 in /lustre/scratch/uccabz1/launch_tmp/launcher_2020-09-11-14-03-17-725994
REM CASTEP 20.1 from code version af48c487+ pr-geom-scf-spinfix Tue Jun 2 15:39:59 2020 +0100
REM Functional Perdew Burke Ernzerhof Relativity Koelling-Harmon Dispersion off
REM Cut-off 340.0000 eV Grid scale 1.7500 Gmax 16.5316 1/A FBSC none
REM MP grid 4 4 4 Offset 0.000 0.000 0.000 No. kpts 32 Spacing 0.07
REM Total runtime: 4374.78 s
REM Overall efficiency: 94.25 %
REM
REM
REM
REM compiler GCC version 4.9.2
REM options -cpp -iprefix /lustre/shared/ucl/apps/gcc/4.9.2/bin/../lib/gcc/x86_64-unknown-linux-gnu/4.9.2/ -mtune=corei7 -march=x86-64 -g -Og
REM COMMAND_LINE
REM seed 83987676 420557673 636311161 153998783 1078928879 1555790776 -606350637 -1910834391 1428569193 -394423109 910133006 -1959885689
REM
REM S 3|1.8|5|6|7|30:31:32(qc=5)
REM O 2|1.5|12|13|15|20:21(qc=5)
REM Li 1|1.3|8|9|10|10U:20(qc=5)
REM Fe 3|2.2|2.0|1.0|8|9|10|40:41:32(qc=5)
REM 
CELL 1.54180    5.97914    6.37789    4.73258  124.40374   73.85571  128.87792
LATT -1
SFAC Li O  S  Fe 
Li     1  0.0946790000000 -0.5261580000000 -0.2547590000000 1.0   0.00
Li     1 -0.0946790000000  0.5261580000000  0.2547590000000 1.0   0.00
Li     1  0.0000000000000  0.0000000000000  0.0000000000000 1.0  -0.04
O      2 -0.1344440000000 -0.3789940000000 -0.0442890000000 1.0   0.18
O      2  0.1344440000000  0.3789940000000  0.0442890000000 1.0   0.18
S      3  0.5000000000000  0.5000000000000  0.5000000000000 1.0   0.01
Fe     4  0.5000000000000 -0.5000000000000  0.0000000000000 1.0   2.73
END
