TITL LFSO-Li4Fe2S3O2-200911-071113-68af7b 0.0630 164.376470 -4.31090998E+003 3.04746 4.57459 11 (P3) n - 1
REM
REM Run started: Fri, 11 Sep 2020 09:16:32 +0100 in /lustre/scratch/uccabz1/launch_tmp/launcher_2020-09-11-06-11-11-282557
REM CASTEP 20.1 from code version af48c487+ pr-geom-scf-spinfix Tue Jun 2 15:39:59 2020 +0100
REM Functional Perdew Burke Ernzerhof Relativity Koelling-Harmon Dispersion off
REM Cut-off 340.0000 eV Grid scale 1.7500 Gmax 16.5316 1/A FBSC none
REM MP grid 3 3 4 Offset 0.000 0.000 0.000 No. kpts 10 Spacing 0.07
REM Total runtime: 7625.76 s
REM Overall efficiency: 90.5714 %
REM
REM
REM
REM compiler GCC version 4.9.2
REM options -cpp -iprefix /lustre/shared/ucl/apps/gcc/4.9.2/bin/../lib/gcc/x86_64-unknown-linux-gnu/4.9.2/ -mtune=corei7 -march=x86-64 -g -Og
REM COMMAND_LINE
REM seed 1930547441 1240464326 -123921912 -1652290044 172121065 -1459887673 1426870603 1796985282 -1678459447 945608290 -1599784054 665355945
REM
REM S 3|1.8|5|6|7|30:31:32(qc=5)
REM O 2|1.5|12|13|15|20:21(qc=5)
REM Li 1|1.3|8|9|10|10U:20(qc=5)
REM Fe 3|2.2|2.0|1.0|8|9|10|40:41:32(qc=5)
REM 
CELL 1.54180    6.57662    6.57662    4.38838   90.00000   90.00000  120.00000
LATT -1
SFAC Li O  S  Fe 
Li     1  0.1662880000000 -0.6672570000000 -0.2693020000000 1.0   0.02
Li     1  0.6672570000000 -0.1664550000000 -0.2693020000000 1.0   0.02
Li     1  0.1664550000000 -0.1662880000000 -0.2693020000000 1.0   0.02
Li     1 -0.0000000000000  0.0000000000000  0.2281490000000 1.0   0.02
O      2 -0.0000000000000  0.0000000000000 -0.2556170000000 1.0   0.09
O      2  0.3333330000000 -0.3333330000000 -0.2410510000000 1.0  -0.59
S      3 -0.0089530000000  0.4499840000000  0.2463760000000 1.0   0.05
S      3 -0.4499840000000 -0.4589370000000  0.2463760000000 1.0   0.05
S      3  0.4589370000000  0.0089530000000  0.2463760000000 1.0   0.05
Fe     4 -0.3333330000000  0.3333330000000  0.5066740000000 1.0   1.65
Fe     4 -0.3333330000000  0.3333330000000 -0.0146400000000 1.0   1.69
END
