TITL LFSO-Li2Fe3S3O-200912-185935-4cb589 0.0192 244.893893 -8.68205982E+003 9.28569 9.99299 18 (R3m) n - 1
REM
REM Run started: Sun, 13 Sep 2020 05:45:33 +0100 in /lustre/scratch/uccabz1/launch_tmp/launcher_2020-09-12-17-59-33-562574
REM CASTEP 20.1 from code version af48c487+ pr-geom-scf-spinfix Tue Jun 2 15:39:59 2020 +0100
REM Functional Perdew Burke Ernzerhof Relativity Koelling-Harmon Dispersion off
REM Cut-off 340.0000 eV Grid scale 1.7500 Gmax 16.5316 1/A FBSC none
REM MP grid 3 3 3 Offset 0.000 0.000 0.000 No. kpts 6 Spacing 0.07
REM Total runtime: 41931.7 s
REM Overall efficiency: 98.4444 %
REM
REM
REM
REM compiler GCC version 4.9.2
REM options -cpp -iprefix /lustre/shared/ucl/apps/gcc/4.9.2/bin/../lib/gcc/x86_64-unknown-linux-gnu/4.9.2/ -mtune=corei7 -march=x86-64 -g -Og
REM COMMAND_LINE
REM seed -180998398 1968198031 1040710493 1038784672 320338827 1567784227 878863632 -583558062 1380195389 1089764662 453448735 1678731090
REM
REM S 3|1.8|5|6|7|30:31:32(qc=5)
REM O 2|1.5|12|13|15|20:21(qc=5)
REM Li 1|1.3|8|9|10|10U:20(qc=5)
REM Fe 3|2.2|2.0|1.0|8|9|10|40:41:32(qc=5)
REM 
CELL 1.54180    7.66909    7.66909    7.66909   50.16980   50.16980   50.16980
LATT -1
SFAC Li O  S  Fe 
Li     1  0.2451630000000 -0.7475310000000 -0.3194640000000 1.0  -0.00
Li     1 -0.7475310000000 -0.3194640000000  0.2451630000000 1.0  -0.00
Li     1 -0.3194640000000  0.2451630000000 -0.7475310000000 1.0  -0.00
Li     1 -0.2808550000000 -0.2808550000000 -0.2808550000000 1.0   0.08
O      2  0.3169820000000  0.3169820000000  0.3169820000000 1.0   0.06
O      2 -0.5484350000000 -0.5484350000000 -0.5484350000000 1.0   0.06
S      3  0.2966790000000 -0.2039040000000 -0.2135350000000 1.0   0.02
S      3 -0.2039040000000 -0.2135350000000  0.2966790000000 1.0   0.02
S      3 -0.2135350000000  0.2966790000000 -0.2039040000000 1.0   0.02
S      3  0.4749650000000 -0.0254660000000 -0.0184490000000 1.0   0.05
S      3 -0.0254660000000 -0.0184490000000  0.4749650000000 1.0   0.05
S      3 -0.0184490000000  0.4749650000000 -0.0254660000000 1.0   0.05
Fe     4  0.1301530000000  0.5102650000000  0.1162150000000 1.0   1.50
Fe     4  0.5102650000000  0.1162150000000  0.1301530000000 1.0   1.50
Fe     4  0.1162150000000  0.1301530000000  0.5102650000000 1.0   1.50
Fe     4 -0.3586770000000  0.2659090000000 -0.3493520000000 1.0   1.46
Fe     4  0.2659090000000 -0.3493520000000 -0.3586770000000 1.0   1.46
Fe     4 -0.3493520000000 -0.3586770000000  0.2659090000000 1.0   1.46
END
