TITL LFSO-Li2Fe2S3O-200913-050318-88ddfe 0.0705 269.763411 -6.95220784E+003 9.99132 11.6779 16 (P3) n - 1
REM
REM Run started: Mon, 14 Sep 2020 10:15:48 +0100 in /lustre/scratch/uccabz1/launch_tmp/launcher_2020-09-14-06-37-47-914734
REM CASTEP 20.1 from code version af48c487+ pr-geom-scf-spinfix Tue Jun 2 15:39:59 2020 +0100
REM Functional Perdew Burke Ernzerhof Relativity Koelling-Harmon Dispersion off
REM Cut-off 340.0000 eV Grid scale 1.7500 Gmax 16.5316 1/A FBSC none
REM MP grid 2 3 3 Offset 0.000 0.000 0.000 No. kpts 5 Spacing 0.07
REM Total runtime: 47723.7 s
REM Overall efficiency: 83 %
REM
REM
REM
REM compiler GCC version 4.9.2
REM options -cpp -iprefix /lustre/shared/ucl/apps/gcc/4.9.2/bin/../lib/gcc/x86_64-unknown-linux-gnu/4.9.2/ -mtune=corei7 -march=x86-64 -g -Og
REM COMMAND_LINE
REM seed -1570284085 -1632470831 -1760178654 -1309097359 -946158556 262638161 1115198490 -1020031637 1400009265 -450917412 803698130 -859055784
REM
REM S 3|1.8|5|6|7|30:31:32(qc=5)
REM O 2|1.5|12|13|15|20:21(qc=5)
REM Li 1|1.3|8|9|10|10U:20(qc=5)
REM Fe 3|2.2|2.0|1.0|8|9|10|40:41:32(qc=5)
REM 
CELL 1.54180    8.66907    5.99432    5.99432  120.00000   90.00000   90.00000
LATT -1
SFAC Li O  S  Fe 
Li     1  0.0182360000000  0.3381340000000  0.3351940000000 1.0   0.01
Li     1  0.0182360000000 -0.3351940000000  0.0029400000000 1.0   0.01
Li     1  0.0182360000000 -0.0029400000000 -0.3381340000000 1.0   0.01
Li     1  0.3185700000000  0.0000000000000  0.0000000000000 1.0  -0.02
O      2 -0.4663990000000  0.0000000000000  0.0000000000000 1.0   0.29
O      2 -0.5001020000000  0.3333330000000 -0.3333330000000 1.0   0.09
S      3  0.1929450000000  0.3500760000000 -0.0017620000000 1.0   0.01
S      3  0.1929450000000  0.0017620000000  0.3518380000000 1.0   0.01
S      3  0.1929450000000 -0.3518380000000 -0.3500760000000 1.0   0.01
S      3 -0.2281870000000 -0.3520330000000 -0.3783690000000 1.0   0.14
S      3 -0.2281870000000  0.3783690000000  0.0263360000000 1.0   0.14
S      3 -0.2281870000000 -0.0263360000000  0.3520330000000 1.0   0.14
Fe     4  0.6298170000000 -0.3293810000000 -0.0476710000000 1.0   3.31
Fe     4  0.6298170000000  0.0476710000000 -0.2817100000000 1.0   3.31
Fe     4  0.6298170000000  0.2817100000000  0.3293810000000 1.0   3.31
Fe     4  0.2938890000000  0.3333330000000 -0.3333330000000 1.0  -0.76
END
