TITL LFSO-Li4Fe2S4O-200910-172210-dd4bbe -0.0137 193.151404 -4.17756749E+003 4.51181 5.20840 11 (Cm) n - 1
REM
REM Run started: Thu, 10 Sep 2020 19:03:04 +0100 in /lustre/scratch/uccabz1/launch_tmp/launcher_2020-09-10-16-22-07-743449
REM CASTEP 20.1 from code version af48c487+ pr-geom-scf-spinfix Tue Jun 2 15:39:59 2020 +0100
REM Functional Perdew Burke Ernzerhof Relativity Koelling-Harmon Dispersion off
REM Cut-off 340.0000 eV Grid scale 1.7500 Gmax 16.5316 1/A FBSC none
REM MP grid 4 4 2 Offset 0.000 0.000 0.000 No. kpts 10 Spacing 0.07
REM Total runtime: 6192.98 s
REM Overall efficiency: 80.2857 %
REM
REM
REM
REM compiler GCC version 4.9.2
REM options -cpp -iprefix /lustre/shared/ucl/apps/gcc/4.9.2/bin/../lib/gcc/x86_64-unknown-linux-gnu/4.9.2/ -mtune=corei7 -march=x86-64 -g -Og
REM COMMAND_LINE
REM seed 1115875089 -292954861 1247757086 612017383 -1516441245 1220580916 50949051 -1481617023 -120369425 -1486122168 290418807 138882704
REM
REM S 3|1.8|5|6|7|30:31:32(qc=5)
REM O 2|1.5|12|13|15|20:21(qc=5)
REM Li 1|1.3|8|9|10|10U:20(qc=5)
REM Fe 3|2.2|2.0|1.0|8|9|10|40:41:32(qc=5)
REM 
CELL 1.54180    5.58781    5.58781    7.61176   73.18336   73.18336   59.54016
LATT -1
SFAC Li O  S  Fe 
Li     1  0.1689680000000 -0.3793320000000 -0.0033200000000 1.0  -0.03
Li     1 -0.3793320000000  0.1689680000000 -0.0033200000000 1.0  -0.03
Li     1  0.5073480000000  0.0653720000000  0.3999320000000 1.0  -0.03
Li     1  0.0653720000000  0.5073480000000  0.3999320000000 1.0  -0.03
O      2 -0.5941020000000 -0.5941020000000  0.2021570000000 1.0   0.07
S      3 -0.0799940000000  0.4318730000000 -0.0970770000000 1.0   0.06
S      3  0.4318730000000 -0.0799940000000 -0.0970770000000 1.0   0.06
S      3  0.2209350000000 -0.1856140000000 -0.5059970000000 1.0  -0.02
S      3 -0.1856140000000  0.2209350000000 -0.5059970000000 1.0  -0.02
Fe     4 -0.1771720000000  0.2966680000000  0.1970290000000 1.0   2.24
Fe     4  0.2966680000000 -0.1771720000000  0.1970290000000 1.0   2.24
END
