TITL LFSO-Li6FeS3O-200910-002236-756012 0.1438 394.416261 -6.82661828E+003 7.99984 8.13612 22 (C2) n - 1
REM
REM Run started: Thu, 10 Sep 2020 12:53:24 +0100 in /lustre/scratch/uccabz1/launch_tmp/launcher_2020-09-09-23-22-34-843448
REM CASTEP 20.1 from code version af48c487+ pr-geom-scf-spinfix Tue Jun 2 15:39:59 2020 +0100
REM Functional Perdew Burke Ernzerhof Relativity Koelling-Harmon Dispersion off
REM Cut-off 340.0000 eV Grid scale 1.7500 Gmax 16.5316 1/A FBSC none
REM MP grid 3 3 2 Offset 0.000 0.000 0.000 No. kpts 6 Spacing 0.07
REM Total runtime: 49140.8 s
REM Overall efficiency: 96.7692 %
REM
REM
REM
REM compiler GCC version 4.9.2
REM options -cpp -iprefix /lustre/shared/ucl/apps/gcc/4.9.2/bin/../lib/gcc/x86_64-unknown-linux-gnu/4.9.2/ -mtune=corei7 -march=x86-64 -g -Og
REM COMMAND_LINE
REM seed 690293007 -2119069464 -665262935 -385905507 1841906607 -980272197 -845768100 1593222968 -1934384879 -1281645457 -805051891 -21080684
REM
REM S 3|1.8|5|6|7|30:31:32(qc=5)
REM O 2|1.5|12|13|15|20:21(qc=5)
REM Li 1|1.3|8|9|10|10U:20(qc=5)
REM Fe 3|2.2|2.0|1.0|8|9|10|40:41:32(qc=5)
REM 
CELL 1.54180    6.32959    6.32959   15.64820   53.59370   53.59370   78.57653
LATT -1
SFAC Li O  S  Fe 
Li     1  0.0873970000000 -0.4749880000000 -0.4734110000000 1.0   0.00
Li     1  0.4749880000000 -0.0873970000000  0.4734110000000 1.0   0.00
Li     1  0.1930750000000  0.1249890000000 -0.1403080000000 1.0  -0.01
Li     1 -0.1249890000000 -0.1930750000000  0.1403080000000 1.0  -0.01
Li     1 -0.2911290000000  0.4338290000000  0.4010690000000 1.0   0.01
Li     1 -0.4338290000000  0.2911290000000 -0.4010690000000 1.0   0.01
Li     1  0.2226620000000  0.5674410000000  0.3196340000000 1.0   0.01
Li     1 -0.5674410000000 -0.2226620000000 -0.3196340000000 1.0   0.01
Li     1  0.0367780000000 -0.0898880000000  0.3486470000000 1.0   0.02
Li     1  0.0898880000000 -0.0367780000000 -0.3486470000000 1.0   0.02
Li     1 -0.2825890000000  0.4481910000000 -0.1556200000000 1.0  -0.04
Li     1 -0.4481910000000  0.2825890000000  0.1556200000000 1.0  -0.04
O      2  0.4548800000000  0.1036120000000 -0.4544860000000 1.0   0.01
O      2 -0.1036120000000 -0.4548800000000  0.4544860000000 1.0   0.01
S      3 -0.5003610000000 -0.1616590000000  0.3104090000000 1.0   0.02
S      3  0.1616590000000  0.5003610000000 -0.3104090000000 1.0   0.02
S      3 -0.4211040000000 -0.1189710000000 -0.2019990000000 1.0   0.22
S      3  0.1189710000000  0.4211040000000  0.2019990000000 1.0   0.22
S      3  0.2826960000000  0.1691890000000 -0.0151150000000 1.0   0.22
S      3 -0.1691890000000 -0.2826960000000  0.0151150000000 1.0   0.22
Fe     4  0.4837370000000 -0.1940910000000 -0.0125350000000 1.0   3.53
Fe     4  0.1940910000000 -0.4837370000000  0.0125350000000 1.0   3.53
END
