TITL LFSO-Li2Fe3S3O-200912-165424-c913c5 0.0657 160.862978 -4.33963417E+003 6.03913 6.59546 9 (R3) n - 1
REM
REM Run started: Sat, 12 Sep 2020 20:02:25 +0100 in /lustre/scratch/uccabz1/launch_tmp/launcher_2020-09-12-15-54-23-257637
REM CASTEP 20.1 from code version af48c487+ pr-geom-scf-spinfix Tue Jun 2 15:39:59 2020 +0100
REM Functional Perdew Burke Ernzerhof Relativity Koelling-Harmon Dispersion off
REM Cut-off 340.0000 eV Grid scale 1.7500 Gmax 16.5316 1/A FBSC none
REM MP grid 3 3 4 Offset 0.000 0.000 0.000 No. kpts 14 Spacing 0.07
REM Total runtime: 11339 s
REM Overall efficiency: 95.625 %
REM
REM
REM
REM compiler GCC version 4.9.2
REM options -cpp -iprefix /lustre/shared/ucl/apps/gcc/4.9.2/bin/../lib/gcc/x86_64-unknown-linux-gnu/4.9.2/ -mtune=corei7 -march=x86-64 -g -Og
REM COMMAND_LINE
REM seed -491147402 1227648211 -257144843 1973548973 952456937 -701450532 -514571235 1106348790 -1417575450 -903039871 -1765474435 -1858940360
REM
REM S 3|1.8|5|6|7|30:31:32(qc=5)
REM O 2|1.5|12|13|15|20:21(qc=5)
REM Li 1|1.3|8|9|10|10U:20(qc=5)
REM Fe 3|2.2|2.0|1.0|8|9|10|40:41:32(qc=5)
REM 
CELL 1.54180    6.37423    6.37423    5.86884   57.10797   57.10797   60.00000
LATT -1
SFAC Li O  S  Fe 
Li     1  0.0095410000000  0.0095410000000 -0.0286230000000 1.0  -0.09
Li     1 -0.2937160000000 -0.2937160000000 -0.1188500000000 1.0  -0.13
O      2  0.1432140000000  0.1432140000000 -0.4296430000000 1.0   0.09
S      3 -0.1594400000000 -0.3759570000000  0.2982540000000 1.0   0.01
S      3  0.2371430000000 -0.1594400000000  0.2982540000000 1.0   0.01
S      3 -0.3759570000000  0.2371430000000  0.2982540000000 1.0   0.01
Fe     4  0.1988450000000  0.4758400000000  0.3940310000000 1.0   2.04
Fe     4 -0.0687160000000  0.1988450000000  0.3940310000000 1.0   2.04
Fe     4  0.4758400000000 -0.0687160000000  0.3940310000000 1.0   2.04
END
