TITL LFSO-Li5FeSO3-200910-070727-4bb6f1 0.0069 142.524517 -3.48183883E+003 4.99998 5.05042 10 (R3) n - 1
REM
REM Run started: Thu, 10 Sep 2020 08:21:07 +0100 in /lustre/scratch/uccabz1/launch_tmp/launcher_2020-09-10-06-07-26-002079
REM CASTEP 20.1 from code version af48c487+ pr-geom-scf-spinfix Tue Jun 2 15:39:59 2020 +0100
REM Functional Perdew Burke Ernzerhof Relativity Koelling-Harmon Dispersion off
REM Cut-off 340.0000 eV Grid scale 1.7500 Gmax 16.5316 1/A FBSC none
REM MP grid 4 4 3 Offset 0.000 0.000 0.000 No. kpts 24 Spacing 0.07
REM Total runtime: 4473.69 s
REM Overall efficiency: 93 %
REM
REM
REM
REM compiler GCC version 4.9.2
REM options -cpp -iprefix /lustre/shared/ucl/apps/gcc/4.9.2/bin/../lib/gcc/x86_64-unknown-linux-gnu/4.9.2/ -mtune=corei7 -march=x86-64 -g -Og
REM COMMAND_LINE
REM seed -1837587708 -611297429 1519247455 502047594 -1366555082 -1119602983 815419641 1197731846 1261358233 -1160888610 -1028545010 -969815996
REM
REM S 3|1.8|5|6|7|30:31:32(qc=5)
REM O 2|1.5|12|13|15|20:21(qc=5)
REM Li 1|1.3|8|9|10|10U:20(qc=5)
REM Fe 3|2.2|2.0|1.0|8|9|10|40:41:32(qc=5)
REM 
CELL 1.54180    5.22400    5.22400    6.74266   67.20817   67.20817   60.00000
LATT -1
SFAC Li O  S  Fe 
Li     1 -0.0725310000000  0.3049450000000  0.1359640000000 1.0   0.04
Li     1 -0.3683780000000 -0.0725310000000  0.1359640000000 1.0   0.04
Li     1  0.3049450000000 -0.3683780000000  0.1359640000000 1.0   0.04
Li     1 -0.2756630000000 -0.2756630000000  0.8269880000000 1.0  -0.05
Li     1  0.0560190000000  0.0560190000000 -0.1680550000000 1.0  -0.04
O      2  0.0207870000000 -0.3288510000000 -0.0331850000000 1.0   0.29
O      2  0.3412490000000  0.0207870000000 -0.0331850000000 1.0   0.29
O      2 -0.3288510000000  0.3412490000000 -0.0331850000000 1.0   0.29
S      3  0.5151140000000  0.5151140000000 -0.5453410000000 1.0   0.27
Fe     4  0.3919120000000  0.3919120000000 -0.1757350000000 1.0   3.85
END
