TITL LFSO-Li2Fe2S3O-200913-022152-6c4336 0.0561 439.863688 -1.04291158E+004 17.2060 17.9797 24 (P3) n - 1
REM
REM Run started: Sun, 13 Sep 2020 16:45:10 +0100 in /lustre/scratch/uccabz1/launch_tmp/launcher_2020-09-13-01-21-50-538653
REM CASTEP 20.1 from code version af48c487+ pr-geom-scf-spinfix Tue Jun 2 15:39:59 2020 +0100
REM Functional Perdew Burke Ernzerhof Relativity Koelling-Harmon Dispersion off
REM Cut-off 340.0000 eV Grid scale 1.7500 Gmax 16.5316 1/A FBSC none
REM MP grid 4 2 2 Offset 0.000 0.000 0.000 No. kpts 8 Spacing 0.07
REM Total runtime: 52081.8 s
REM Overall efficiency: 98.3333 %
REM
REM
REM
REM compiler GCC version 4.9.2
REM options -cpp -iprefix /lustre/shared/ucl/apps/gcc/4.9.2/bin/../lib/gcc/x86_64-unknown-linux-gnu/4.9.2/ -mtune=corei7 -march=x86-64 -g -Og
REM COMMAND_LINE
REM seed -75556978 52170463 -1566289956 -2140014854 -483870722 1501696844 1797130885 -1290294512 -1597813 1365535908 -168278584 1822841821
REM
REM S 3|1.8|5|6|7|30:31:32(qc=5)
REM O 2|1.5|12|13|15|20:21(qc=5)
REM Li 1|1.3|8|9|10|10U:20(qc=5)
REM Fe 3|2.2|2.0|1.0|8|9|10|40:41:32(qc=5)
REM 
CELL 1.54180    3.63630   11.81854   11.81854  120.00000   90.00000   90.00000
LATT -1
SFAC Li O  S  Fe 
Li     1  0.4756320000000 -0.1401440000000  0.2197420000000 1.0   0.01
Li     1  0.4756320000000 -0.2197420000000 -0.3598870000000 1.0   0.01
Li     1  0.4756320000000  0.3598870000000  0.1401440000000 1.0   0.01
Li     1  0.4268550000000  0.4663040000000 -0.1387610000000 1.0   0.02
Li     1  0.4268550000000  0.1387610000000 -0.3949350000000 1.0   0.02
Li     1  0.4268550000000  0.3949350000000 -0.4663040000000 1.0   0.02
O      2 -0.0165680000000 -0.2747060000000 -0.4685810000000 1.0   0.18
O      2 -0.0165680000000  0.4685810000000  0.1938750000000 1.0   0.18
O      2 -0.0165680000000 -0.1938750000000  0.2747060000000 1.0   0.18
S      3 -0.0428110000000  0.1558340000000  0.1307710000000 1.0   0.10
S      3 -0.0428110000000 -0.1307710000000  0.0250640000000 1.0   0.10
S      3 -0.0428110000000 -0.0250640000000 -0.1558340000000 1.0   0.10
S      3 -0.0704930000000  0.0064920000000 -0.4169730000000 1.0   0.13
S      3 -0.0704930000000  0.4169730000000 -0.5765350000000 1.0   0.13
S      3 -0.0704930000000  0.5765350000000 -0.0064920000000 1.0   0.13
S      3  0.4444540000000  0.2519310000000 -0.1456180000000 1.0   0.15
S      3  0.4444540000000  0.1456180000000  0.3975500000000 1.0   0.15
S      3  0.4444540000000 -0.3975500000000 -0.2519310000000 1.0   0.15
Fe     4 -0.0240590000000 -0.4274910000000  0.3732140000000 1.0   2.60
Fe     4 -0.0240590000000 -0.3732140000000  0.1992950000000 1.0   2.60
Fe     4 -0.0240590000000 -0.1992950000000  0.4274910000000 1.0   2.60
Fe     4 -0.0551900000000 -0.3248170000000 -0.1207480000000 1.0   2.55
Fe     4 -0.0551900000000  0.1207480000000 -0.2040690000000 1.0   2.55
Fe     4 -0.0551900000000  0.2040690000000  0.3248170000000 1.0   2.55
END
