TITL LFSO-LiFeSO-200909-050529-584477 -0.0285 258.972167 -7.22067612E+003 14.1446 14.4577 16 (P2) n - 1
REM
REM Run started: Wed, 09 Sep 2020 12:30:51 +0100 in /lustre/scratch/uccabz1/launch_tmp/launcher_2020-09-09-04-05-27-273639
REM CASTEP 20.1 from code version af48c487+ pr-geom-scf-spinfix Tue Jun 2 15:39:59 2020 +0100
REM Functional Perdew Burke Ernzerhof Relativity Koelling-Harmon Dispersion off
REM Cut-off 340.0000 eV Grid scale 1.7500 Gmax 16.5316 1/A FBSC none
REM MP grid 3 3 2 Offset 0.000 0.000 0.000 No. kpts 5 Spacing 0.07
REM Total runtime: 28393.1 s
REM Overall efficiency: 82.0833 %
REM
REM
REM
REM compiler GCC version 4.9.2
REM options -cpp -iprefix /lustre/shared/ucl/apps/gcc/4.9.2/bin/../lib/gcc/x86_64-unknown-linux-gnu/4.9.2/ -mtune=corei7 -march=x86-64 -g -Og
REM COMMAND_LINE
REM seed -1702644178 -244494760 -1705988626 -845480249 -1219396196 1367804916 -1405826000 1427937213 -1904384404 -526123705 -1970789717 -1853717024
REM
REM S 3|1.8|5|6|7|30:31:32(qc=5)
REM O 2|1.5|12|13|15|20:21(qc=5)
REM Li 1|1.3|8|9|10|10U:20(qc=5)
REM Fe 3|2.2|2.0|1.0|8|9|10|40:41:32(qc=5)
REM 
CELL 1.54180    5.22010    7.01782    7.74209   90.00000   90.00000  114.06407
LATT -1
SFAC Li O  S  Fe 
Li     1  0.1257790000000  0.2507610000000 -0.1584040000000 1.0   0.00
Li     1 -0.1257790000000 -0.2507610000000 -0.1584040000000 1.0   0.00
Li     1  0.3297900000000 -0.3549860000000 -0.4859600000000 1.0   0.01
Li     1 -0.3297900000000  0.3549860000000 -0.4859600000000 1.0   0.01
O      2 -0.1379370000000 -0.3780010000000  0.0591990000000 1.0   0.54
O      2  0.1379370000000  0.3780010000000  0.0591990000000 1.0   0.54
O      2 -0.3952640000000  0.1916240000000  0.3117680000000 1.0   0.12
O      2  0.3952640000000 -0.1916240000000  0.3117680000000 1.0   0.12
S      3  0.4543630000000 -0.1642040000000 -0.1586830000000 1.0   0.13
S      3 -0.4543630000000  0.1642040000000 -0.1586830000000 1.0   0.13
S      3  0.1330800000000  0.2546260000000 -0.4881740000000 1.0   0.10
S      3 -0.1330800000000 -0.2546260000000 -0.4881740000000 1.0   0.10
Fe     4  0.2420960000000  0.0001580000000  0.3899370000000 1.0   2.47
Fe     4 -0.2420960000000 -0.0001580000000  0.3899370000000 1.0   2.47
Fe     4  0.2488960000000 -0.3334160000000  0.0920840000000 1.0   3.70
Fe     4 -0.2488960000000  0.3334160000000  0.0920840000000 1.0   3.70
END
