TITL LFSO-Li4Fe3SO4-200930-163725-988286 0.0519 137.837249 -5.44622725E+003 10.4296 10.6501 12 (C2) n - 1
REM
REM Run started: Wed, 30 Sep 2020 22:34:03 +0100 in /scratch/scratch/uccabz1/launch_tmp/launcher_2020-09-30-15-37-22-886494
REM CASTEP 19.11| from code version Version unavailable
REM Functional Perdew Burke Ernzerhof Relativity Koelling-Harmon Dispersion off
REM Cut-off 340.0000 eV Grid scale 1.7500 Gmax 16.5316 1/A FBSC none
REM MP grid 4 4 2 Offset 0.000 0.000 0.000 No. kpts 14 Spacing 0.07
REM Total runtime: 23164.5 s
REM Overall efficiency: 92.2 %
REM
REM
REM
REM compiler GCC version 4.9.2
REM options -cpp -iprefix /scratch/UCL/applications/gcc/4.9.2/bin/../lib/gcc/x86_64-unknown-linux-gnu/4.9.2/ -mtune=corei7 -march=x86-64 -g -O2
REM COMMAND_LINE
REM seed -780251682 -2081734987 1875569263 397213515 186421567 2061357179 -1797959260 390309959 -312048238 746770798 -838730014 -2062137058
REM
REM S 3|1.8|5|6|7|30:31:32(qc=5)
REM O 2|1.5|12|13|15|20:21(qc=5)
REM Li 1|1.3|8|9|10|10U:20(qc=5)
REM Fe 3|2.2|2.0|1.0|8|9|10|40:41:32(qc=5)
REM 
CELL 1.54180    3.73006    3.73006   10.28365   96.56234  103.71300   91.79707
LATT -1
SFAC Li O  S  Fe 
Li     1  0.1213220000000 -0.2785300000000 -0.2486010000000 1.0  -0.03
Li     1 -0.0299280000000  0.3699230000000  0.2486010000000 1.0  -0.03
Li     1 -0.6073470000000 -0.1262530000000  0.1946540000000 1.0  -0.02
Li     1 -0.3209060000000  0.1979990000000 -0.1946540000000 1.0  -0.02
O      2  0.6503420000000 -0.2975120000000 -0.1845260000000 1.0   0.16
O      2 -0.1129850000000 -0.1651310000000  0.1845260000000 1.0   0.16
O      2 -0.4408340000000  0.4105560000000  0.3737100000000 1.0   0.26
O      2  0.0368470000000  0.1854560000000 -0.3737100000000 1.0   0.26
S      3  0.2739040000000  0.2739040000000  0.0000000000000 1.0   0.07
Fe     4  0.3749230000000  0.3254150000000 -0.4745770000000 1.0   3.27
Fe     4 -0.2000080000000 -0.1504990000000  0.4745770000000 1.0   3.27
Fe     4 -0.2686530000000 -0.2686530000000  0.0000000000000 1.0   3.08
END
