TITL LFSO-Li2Fe2SO2-200913-005014-7c4302 -1.5763 332.167140 -9.91961604E+003 16.3918 17.0164 21 (Cm) n - 1
REM
REM Run started: Mon, 14 Sep 2020 15:17:53 +0100 in /lustre/scratch/uccabz1/launch_tmp/launcher_2020-09-14-10-43-47-581122
REM CASTEP 20.1 from code version af48c487+ pr-geom-scf-spinfix Tue Jun 2 15:39:59 2020 +0100
REM Functional Perdew Burke Ernzerhof Relativity Koelling-Harmon Dispersion off
REM Cut-off 340.0000 eV Grid scale 1.7500 Gmax 16.5316 1/A FBSC none
REM MP grid 3 3 2 Offset 0.000 0.000 0.000 No. kpts 6 Spacing 0.07
REM Total runtime: 145764 s
REM Overall efficiency: 92 %
REM
REM
REM
REM compiler GCC version 4.9.2
REM options -cpp -iprefix /lustre/shared/ucl/apps/gcc/4.9.2/bin/../lib/gcc/x86_64-unknown-linux-gnu/4.9.2/ -mtune=corei7 -march=x86-64 -g -Og
REM COMMAND_LINE
REM seed -1874721504 -685180045 379960044 -1550438179 -351966449 -1500365375 -1557253854 -737775733 -1568543172 -1910675862 46675119 846966157
REM
REM S 3|1.8|5|6|7|30:31:32(qc=5)
REM O 2|1.5|12|13|15|20:21(qc=5)
REM Li 1|1.3|8|9|10|10U:20(qc=5)
REM Fe 3|2.2|2.0|1.0|8|9|10|40:41:32(qc=5)
REM 
CELL 1.54180    7.70557    7.70557    9.05582   95.35595   95.35595  140.04457
LATT -1
SFAC Li O  S  Fe 
Li     1 -0.0503550000000 -0.4933520000000 -0.3023350000000 1.0  -0.07
Li     1 -0.4933520000000 -0.0503550000000 -0.3023350000000 1.0  -0.07
Li     1 -0.4831050000000  0.2039600000000  0.4916210000000 1.0   0.02
Li     1  0.2039600000000 -0.4831050000000  0.4916210000000 1.0   0.02
Li     1 -0.0490520000000  0.6077260000000  0.2172440000000 1.0  -0.01
Li     1  0.6077260000000 -0.0490520000000  0.2172440000000 1.0  -0.01
O      2 -0.4332340000000  0.2800330000000 -0.2968760000000 1.0   0.14
O      2  0.2800330000000 -0.4332340000000 -0.2968760000000 1.0   0.14
O      2 -0.2574920000000  0.2377890000000  0.1115870000000 1.0   0.13
O      2  0.2377890000000 -0.2574920000000  0.1115870000000 1.0   0.13
O      2 -0.1988420000000  0.0365870000000 -0.1254610000000 1.0   0.16
O      2  0.0365870000000 -0.1988420000000 -0.1254610000000 1.0   0.16
S      3  0.0218710000000 -0.2759260000000  0.5003630000000 1.0   0.06
S      3 -0.2759260000000  0.0218710000000  0.5003630000000 1.0   0.06
S      3  0.5921050000000  0.5921050000000  0.0965410000000 1.0   0.22
Fe     4 -0.6133480000000  0.0231200000000  0.0011290000000 1.0   2.67
Fe     4  0.0231200000000 -0.6133480000000  0.0011290000000 1.0   2.67
Fe     4 -0.3491150000000  0.4720780000000 -0.1078420000000 1.0   2.51
Fe     4  0.4720780000000 -0.3491150000000 -0.1078420000000 1.0   2.51
Fe     4  0.0290840000000  0.2278250000000 -0.2559550000000 1.0   2.47
Fe     4  0.2278250000000  0.0290840000000 -0.2559550000000 1.0   2.47
END
