TITL LFSO-Li2Fe2SO3-200913-105426-4dee87 -0.0201 413.508709 -1.12291173E+004 19.8913 20.3150 24 (C2) n - 1
REM
REM Run started: Sun, 13 Sep 2020 22:09:39 +0100 in /lustre/scratch/uccabz1/launch_tmp/launcher_2020-09-13-09-54-22-991229
REM CASTEP 20.1 from code version af48c487+ pr-geom-scf-spinfix Tue Jun 2 15:39:59 2020 +0100
REM Functional Perdew Burke Ernzerhof Relativity Koelling-Harmon Dispersion off
REM Cut-off 340.0000 eV Grid scale 1.7500 Gmax 16.5316 1/A FBSC none
REM MP grid 3 2 2 Offset 0.000 0.000 0.000 No. kpts 5 Spacing 0.07
REM Total runtime: 41503.5 s
REM Overall efficiency: 79.2222 %
REM
REM
REM
REM compiler GCC version 4.9.2
REM options -cpp -iprefix /lustre/shared/ucl/apps/gcc/4.9.2/bin/../lib/gcc/x86_64-unknown-linux-gnu/4.9.2/ -mtune=corei7 -march=x86-64 -g -Og
REM COMMAND_LINE
REM seed -359763376 1830414360 -120203825 370339449 -974413156 1635091367 -336620482 -372903013 259396272 1743195254 1914035833 -680551768
REM
REM S 3|1.8|5|6|7|30:31:32(qc=5)
REM O 2|1.5|12|13|15|20:21(qc=5)
REM Li 1|1.3|8|9|10|10U:20(qc=5)
REM Fe 3|2.2|2.0|1.0|8|9|10|40:41:32(qc=5)
REM 
CELL 1.54180    6.73050    8.04542    8.04542  103.14030   97.98872   97.98872
LATT -1
SFAC Li O  S  Fe 
Li     1  0.3753480000000 -0.3638860000000  0.0299660000000 1.0  -0.01
Li     1 -0.3753480000000 -0.0299660000000  0.3638860000000 1.0  -0.01
Li     1  0.1501120000000 -0.0758820000000 -0.0623710000000 1.0   0.01
Li     1 -0.1501120000000  0.0623710000000  0.0758820000000 1.0   0.01
Li     1  0.0650960000000  0.3902570000000  0.1678240000000 1.0   0.01
Li     1 -0.0650960000000 -0.1678240000000 -0.3902570000000 1.0   0.01
O      2 -0.3597450000000  0.0031840000000  0.5963740000000 1.0   0.27
O      2  0.3597450000000 -0.5963740000000 -0.0031840000000 1.0   0.27
O      2 -0.2306260000000  0.2664380000000  0.1513020000000 1.0   0.42
O      2  0.2306260000000 -0.1513020000000 -0.2664380000000 1.0   0.42
O      2  0.1783650000000  0.4236470000000  0.4004680000000 1.0   0.21
O      2 -0.1783650000000 -0.4004680000000 -0.4236470000000 1.0   0.21
O      2 -0.1617680000000 -0.5738220000000 -0.1140910000000 1.0   0.15
O      2  0.1617680000000  0.1140910000000  0.5738220000000 1.0   0.15
O      2  0.0000000000000  0.0985960000000 -0.0985960000000 1.0   0.36
S      3 -0.2544120000000 -0.2136250000000  0.1320710000000 1.0   0.04
S      3  0.2544120000000 -0.1320710000000  0.2136250000000 1.0   0.04
S      3  0.0000000000000 -0.2740570000000  0.2740570000000 1.0   0.01
Fe     4  0.2127670000000  0.2256350000000 -0.1843060000000 1.0   3.21
Fe     4 -0.2127670000000  0.1843060000000 -0.2256350000000 1.0   3.21
Fe     4 -0.3668170000000  0.3757070000000  0.0246530000000 1.0   3.38
Fe     4  0.3668170000000 -0.0246530000000 -0.3757070000000 1.0   3.38
Fe     4  0.1149850000000  0.3196900000000 -0.4552580000000 1.0   2.07
Fe     4 -0.1149850000000  0.4552580000000 -0.3196900000000 1.0   2.07
END
