TITL LFSO-Li6FeSO3-200909-234546-e9fbb1 -0.0100 350.972162 -7.35943748E+003 -8.10376 9.04462 22 (P3) n - 1
REM
REM Run started: Thu, 10 Sep 2020 04:21:07 +0100 in /lustre/scratch/uccabz1/launch_tmp/launcher_2020-09-09-22-45-45-031014
REM CASTEP 20.1 from code version af48c487+ pr-geom-scf-spinfix Tue Jun 2 15:39:59 2020 +0100
REM Functional Perdew Burke Ernzerhof Relativity Koelling-Harmon Dispersion off
REM Cut-off 340.0000 eV Grid scale 1.7500 Gmax 16.5316 1/A FBSC none
REM MP grid 3 3 2 Offset 0.000 0.000 0.000 No. kpts 5 Spacing 0.07
REM Total runtime: 16641.8 s
REM Overall efficiency: 70.5 %
REM
REM
REM
REM compiler GCC version 4.9.2
REM options -cpp -iprefix /lustre/shared/ucl/apps/gcc/4.9.2/bin/../lib/gcc/x86_64-unknown-linux-gnu/4.9.2/ -mtune=corei7 -march=x86-64 -g -Og
REM COMMAND_LINE
REM seed 129666049 -1911019433 135647563 -584361357 -1084151599 1403040639 982483802 1524144824 966852461 77998817 707642541 1939216261
REM
REM S 3|1.8|5|6|7|30:31:32(qc=5)
REM O 2|1.5|12|13|15|20:21(qc=5)
REM Li 1|1.3|8|9|10|10U:20(qc=5)
REM Fe 3|2.2|2.0|1.0|8|9|10|40:41:32(qc=5)
REM 
CELL 1.54180    6.83476    6.83476    8.67551   90.00000   90.00000  120.00000
LATT -1
SFAC Li O  S  Fe 
Li     1 -0.3358990000000 -0.1587690000000 -0.5269940000000 1.0   0.06
Li     1  0.1771300000000  0.3358990000000 -0.5269940000000 1.0   0.06
Li     1  0.1587690000000 -0.1771300000000 -0.5269940000000 1.0   0.06
Li     1  0.3821500000000  0.3590890000000 -0.2196310000000 1.0   0.08
Li     1 -0.0230610000000 -0.3821500000000 -0.2196310000000 1.0   0.08
Li     1 -0.3590890000000  0.0230610000000 -0.2196310000000 1.0   0.08
Li     1 -0.0660420000000 -0.2783570000000  0.0320460000000 1.0   0.04
Li     1 -0.2123150000000  0.0660420000000  0.0320460000000 1.0   0.04
Li     1  0.2783570000000  0.2123150000000  0.0320460000000 1.0   0.04
Li     1 -0.5007720000000 -0.4261920000000  0.1820460000000 1.0  -0.01
Li     1  0.0745800000000  0.5007720000000  0.1820460000000 1.0  -0.01
Li     1  0.4261920000000 -0.0745800000000  0.1820460000000 1.0  -0.01
O      2  0.0238880000000 -0.4800050000000 -0.0276540000000 1.0  -0.25
O      2 -0.5038940000000 -0.0238880000000 -0.0276540000000 1.0  -0.25
O      2  0.4800050000000  0.5038940000000 -0.0276540000000 1.0  -0.25
O      2  0.1183530000000 -0.1953540000000  0.2611460000000 1.0  -0.21
O      2 -0.3137070000000 -0.1183530000000  0.2611460000000 1.0  -0.21
O      2  0.1953540000000  0.3137070000000  0.2611460000000 1.0  -0.21
S      3  0.3333330000000 -0.3333330000000 -0.3639240000000 1.0  -0.10
S      3 -0.0000000000000  0.0000000000000 -0.2035830000000 1.0   0.01
Fe     4 -0.0000000000000  0.0000000000000  0.2695570000000 1.0  -3.40
Fe     4  0.3333330000000 -0.3333330000000 -0.0859030000000 1.0  -3.70
END
