TITL LFSO-Li2Fe2S3O-200913-055013-43e830 0.0460 602.018405 -1.04220961E+004 -23.2565 23.6867 24 (Cmm2) n - 1
REM
REM Run started: Mon, 14 Sep 2020 21:27:47 +0100 in /lustre/scratch/uccabz1/launch_tmp/launcher_2020-09-14-06-07-20-833337
REM CASTEP 20.1 from code version af48c487+ pr-geom-scf-spinfix Tue Jun 2 15:39:59 2020 +0100
REM Functional Perdew Burke Ernzerhof Relativity Koelling-Harmon Dispersion off
REM Cut-off 340.0000 eV Grid scale 1.7500 Gmax 16.5316 1/A FBSC none
REM MP grid 4 2 2 Offset 0.000 0.000 0.000 No. kpts 4 Spacing 0.07
REM Total runtime: 178600 s
REM Overall efficiency: 98.6923 %
REM
REM
REM
REM compiler GCC version 4.9.2
REM options -cpp -iprefix /lustre/shared/ucl/apps/gcc/4.9.2/bin/../lib/gcc/x86_64-unknown-linux-gnu/4.9.2/ -mtune=corei7 -march=x86-64 -g -Og
REM COMMAND_LINE
REM seed 751953211 -1559640898 -1216581914 2068361276 2080502585 22420730 -1737587977 -1129505976 1938049106 1002691956 -1656284789 -1842347261
REM
REM S 3|1.8|5|6|7|30:31:32(qc=5)
REM O 2|1.5|12|13|15|20:21(qc=5)
REM Li 1|1.3|8|9|10|10U:20(qc=5)
REM Fe 3|2.2|2.0|1.0|8|9|10|40:41:32(qc=5)
REM 
CELL 1.54180    4.41633   11.74795   11.74795   98.99680   90.00000   90.00000
LATT -1
SFAC Li O  S  Fe 
Li     1  0.3567140000000 -0.1151870000000 -0.3531660000000 1.0  -0.08
Li     1  0.3567140000000  0.1151870000000  0.3531660000000 1.0  -0.08
Li     1  0.3567140000000 -0.3531660000000 -0.1151870000000 1.0  -0.08
Li     1  0.3567140000000  0.3531660000000  0.1151870000000 1.0  -0.08
Li     1 -0.1460110000000  0.5000000000000  0.0000000000000 1.0   0.01
Li     1 -0.1460110000000  0.0000000000000 -0.5000000000000 1.0   0.01
O      2  0.3250920000000  0.1978930000000 -0.1978930000000 1.0  -0.30
O      2  0.3250920000000 -0.1978930000000  0.1978930000000 1.0  -0.30
O      2  0.4141900000000 -0.5000000000000  0.5000000000000 1.0  -1.85
S      3 -0.1010390000000  0.2704300000000  0.0170120000000 1.0  -0.19
S      3 -0.1010390000000 -0.2704300000000 -0.0170120000000 1.0  -0.19
S      3 -0.1010390000000  0.0170120000000  0.2704300000000 1.0  -0.19
S      3 -0.1010390000000 -0.0170120000000 -0.2704300000000 1.0  -0.19
S      3 -0.4022170000000  0.1811880000000 -0.4706400000000 1.0  -0.35
S      3 -0.4022170000000 -0.1811880000000  0.4706400000000 1.0  -0.35
S      3 -0.4022170000000 -0.4706400000000  0.1811880000000 1.0  -0.35
S      3 -0.4022170000000  0.4706400000000 -0.1811880000000 1.0  -0.35
S      3 -0.8200380000000  0.0000000000000  0.0000000000000 1.0  -0.21
Fe     4 -0.3766710000000  0.1336410000000 -0.3035650000000 1.0  -3.23
Fe     4 -0.3766710000000 -0.1336410000000  0.3035650000000 1.0  -3.23
Fe     4 -0.3766710000000 -0.3035650000000  0.1336410000000 1.0  -3.23
Fe     4 -0.3766710000000  0.3035650000000 -0.1336410000000 1.0  -3.23
Fe     4  0.0580840000000  0.1176180000000 -0.1176180000000 1.0  -2.60
Fe     4  0.0580840000000 -0.1176180000000  0.1176180000000 1.0  -2.60
END
