TITL LFSO-Li4Fe2S2O3-200911-101834-19786b 0.0017 426.451935 -8.89658104E+003 17.9448 18.1219 22 (R3) n - 1
REM
REM Run started: Sat, 12 Sep 2020 06:28:03 +0100 in /lustre/scratch/uccabz1/launch_tmp/launcher_2020-09-11-09-18-32-271555
REM CASTEP 20.1 from code version af48c487+ pr-geom-scf-spinfix Tue Jun 2 15:39:59 2020 +0100
REM Functional Perdew Burke Ernzerhof Relativity Koelling-Harmon Dispersion off
REM Cut-off 340.0000 eV Grid scale 1.7500 Gmax 16.5316 1/A FBSC none
REM MP grid 3 3 3 Offset 0.000 0.000 0.000 No. kpts 6 Spacing 0.07
REM Total runtime: 80175.9 s
REM Overall efficiency: 98.6667 %
REM
REM
REM
REM compiler GCC version 4.9.2
REM options -cpp -iprefix /lustre/shared/ucl/apps/gcc/4.9.2/bin/../lib/gcc/x86_64-unknown-linux-gnu/4.9.2/ -mtune=corei7 -march=x86-64 -g -Og
REM COMMAND_LINE
REM seed -79310029 -189628213 -1678446647 407069147 -295628286 -1361252805 -671693391 1235642258 1061729572 1167075663 320181287 423066467
REM
REM S 3|1.8|5|6|7|30:31:32(qc=5)
REM O 2|1.5|12|13|15|20:21(qc=5)
REM Li 1|1.3|8|9|10|10U:20(qc=5)
REM Fe 3|2.2|2.0|1.0|8|9|10|40:41:32(qc=5)
REM 
CELL 1.54180    8.78777    8.78777    8.78777   55.21173   55.21173   55.21173
LATT -1
SFAC Li O  S  Fe 
Li     1 -0.5926270000000 -0.4368740000000  0.1162350000000 1.0  -0.02
Li     1 -0.4368740000000  0.1162350000000 -0.5926270000000 1.0  -0.02
Li     1  0.1162350000000 -0.5926270000000 -0.4368740000000 1.0  -0.02
Li     1  0.2147780000000 -0.2165130000000  0.3923090000000 1.0   0.02
Li     1 -0.2165130000000  0.3923090000000  0.2147780000000 1.0   0.02
Li     1  0.3923090000000  0.2147780000000 -0.2165130000000 1.0   0.02
Li     1 -0.3704790000000 -0.3704790000000 -0.3704790000000 1.0  -0.03
Li     1 -0.2720610000000 -0.2720610000000 -0.2720610000000 1.0   0.05
O      2 -0.3579080000000  0.3334050000000  0.1795980000000 1.0   0.34
O      2  0.3334050000000  0.1795980000000 -0.3579080000000 1.0   0.34
O      2  0.1795980000000 -0.3579080000000  0.3334050000000 1.0   0.34
O      2  0.4583940000000 -0.2493770000000 -0.1506500000000 1.0   0.43
O      2 -0.2493770000000 -0.1506500000000  0.4583940000000 1.0   0.43
O      2 -0.1506500000000  0.4583940000000 -0.2493770000000 1.0   0.43
S      3  0.4685050000000  0.3106030000000 -0.0692870000000 1.0   0.27
S      3  0.3106030000000 -0.0692870000000  0.4685050000000 1.0   0.27
S      3 -0.0692870000000  0.4685050000000  0.3106030000000 1.0   0.27
S      3 -0.0389060000000 -0.0389060000000 -0.0389060000000 1.0   0.36
Fe     4 -0.0393060000000 -0.2587040000000  0.2792070000000 1.0   3.67
Fe     4 -0.2587040000000  0.2792070000000 -0.0393060000000 1.0   3.67
Fe     4  0.2792070000000 -0.0393060000000 -0.2587040000000 1.0   3.67
Fe     4  0.2374300000000  0.2374300000000  0.2374300000000 1.0   3.42
END
