TITL LFSO-Li6FeS3O-200910-022033-c5e2f2 -0.0189 446.208429 -6.82381631E+003 6.06785 6.38348 22 (P3) n - 1
REM
REM Run started: Thu, 10 Sep 2020 18:24:15 +0100 in /lustre/scratch/uccabz1/launch_tmp/launcher_2020-09-10-01-20-32-077902
REM CASTEP 20.1 from code version af48c487+ pr-geom-scf-spinfix Tue Jun 2 15:39:59 2020 +0100
REM Functional Perdew Burke Ernzerhof Relativity Koelling-Harmon Dispersion off
REM Cut-off 340.0000 eV Grid scale 1.7500 Gmax 16.5316 1/A FBSC none
REM MP grid 3 3 2 Offset 0.000 0.000 0.000 No. kpts 5 Spacing 0.07
REM Total runtime: 63194.3 s
REM Overall efficiency: 74.4167 %
REM
REM
REM
REM compiler GCC version 4.9.2
REM options -cpp -iprefix /lustre/shared/ucl/apps/gcc/4.9.2/bin/../lib/gcc/x86_64-unknown-linux-gnu/4.9.2/ -mtune=corei7 -march=x86-64 -g -Og
REM COMMAND_LINE
REM seed -1441722659 -1440287375 -1921446835 514950852 2031842438 -1968426739 -1612157515 1614363542 -1238798931 -1398740312 404485074 -972448961
REM
REM S 3|1.8|5|6|7|30:31:32(qc=5)
REM O 2|1.5|12|13|15|20:21(qc=5)
REM Li 1|1.3|8|9|10|10U:20(qc=5)
REM Fe 3|2.2|2.0|1.0|8|9|10|40:41:32(qc=5)
REM 
CELL 1.54180    7.40176    7.40176    9.40452   90.00000   90.00000  120.00000
LATT -1
SFAC Li O  S  Fe 
Li     1 -0.3095220000000 -0.3272740000000  0.3036990000000 1.0   0.00
Li     1 -0.0177520000000  0.3095220000000  0.3036990000000 1.0   0.00
Li     1  0.3272740000000  0.0177520000000  0.3036990000000 1.0   0.00
Li     1  0.5491610000000 -0.0999030000000  0.0671760000000 1.0   0.00
Li     1 -0.6490640000000 -0.5491610000000  0.0671760000000 1.0   0.00
Li     1  0.0999030000000  0.6490640000000  0.0671760000000 1.0   0.00
Li     1  0.0957040000000 -0.3511630000000 -0.4743960000000 1.0  -0.02
Li     1 -0.4468670000000 -0.0957040000000 -0.4743960000000 1.0  -0.02
Li     1  0.3511630000000  0.4468670000000 -0.4743960000000 1.0  -0.02
Li     1  0.2715160000000 -0.0047750000000 -0.2115370000000 1.0  -0.04
Li     1 -0.2762910000000 -0.2715160000000 -0.2115370000000 1.0  -0.04
Li     1  0.0047750000000  0.2762910000000 -0.2115370000000 1.0  -0.04
O      2  0.3333330000000 -0.3333330000000 -0.0182130000000 1.0   0.16
O      2  0.3333330000000 -0.3333330000000 -0.4012780000000 1.0   0.18
S      3  0.3734950000000  0.3525050000000 -0.2135760000000 1.0   0.09
S      3 -0.0209900000000 -0.3734950000000 -0.2135760000000 1.0   0.09
S      3 -0.3525050000000  0.0209900000000 -0.2135760000000 1.0   0.09
S      3  0.0084450000000 -0.3325120000000  0.2966230000000 1.0   0.00
S      3 -0.3409570000000 -0.0084450000000  0.2966230000000 1.0   0.00
S      3  0.3325120000000  0.3409570000000  0.2966230000000 1.0   0.00
Fe     4  0.3333330000000 -0.3333330000000 -0.2110000000000 1.0   2.58
Fe     4 -0.3333330000000  0.3333330000000 -0.2395820000000 1.0   3.02
END
