TITL LFSO-Li6FeS3O-200910-041756-f7446f -0.0036 398.142512 -6.81817201E+003 -6.00056 7.18129 22 (C222) n - 1
REM
REM Run started: Thu, 10 Sep 2020 11:24:31 +0100 in /lustre/scratch/uccabz1/launch_tmp/launcher_2020-09-10-08-39-35-607222
REM CASTEP 20.1 from code version af48c487+ pr-geom-scf-spinfix Tue Jun 2 15:39:59 2020 +0100
REM Functional Perdew Burke Ernzerhof Relativity Koelling-Harmon Dispersion off
REM Cut-off 340.0000 eV Grid scale 1.7500 Gmax 16.5316 1/A FBSC none
REM MP grid 3 3 2 Offset 0.000 0.000 0.000 No. kpts 6 Spacing 0.07
REM Total runtime: 24022.4 s
REM Overall efficiency: 98.0909 %
REM
REM
REM
REM compiler GCC version 4.9.2
REM options -cpp -iprefix /lustre/shared/ucl/apps/gcc/4.9.2/bin/../lib/gcc/x86_64-unknown-linux-gnu/4.9.2/ -mtune=corei7 -march=x86-64 -g -Og
REM COMMAND_LINE
REM seed 1944695783 2070447613 -21728537 -585281918 169524588 350029961 1509406951 -453863661 1078833737 -1229938363 1027751444 2072599285
REM
REM S 3|1.8|5|6|7|30:31:32(qc=5)
REM O 2|1.5|12|13|15|20:21(qc=5)
REM Li 1|1.3|8|9|10|10U:20(qc=5)
REM Fe 3|2.2|2.0|1.0|8|9|10|40:41:32(qc=5)
REM 
CELL 1.54180    5.54497    7.38415   10.40120  110.79140   90.00000   90.00000
LATT -1
SFAC Li O  S  Fe 
Li     1  0.2286960000000  0.2074650000000  0.0157500000000 1.0   0.20
Li     1  0.2286960000000 -0.2074650000000 -0.0157500000000 1.0   0.20
Li     1 -0.2286960000000  0.1917150000000 -0.0157500000000 1.0   0.20
Li     1 -0.2286960000000 -0.1917150000000  0.0157500000000 1.0   0.20
Li     1 -0.1405660000000  0.0963700000000 -0.3172030000000 1.0  -0.01
Li     1 -0.1405660000000 -0.0963700000000  0.3172030000000 1.0  -0.01
Li     1  0.1405660000000  0.4135740000000  0.3172030000000 1.0  -0.01
Li     1  0.1405660000000 -0.4135740000000 -0.3172030000000 1.0  -0.01
Li     1  0.2699110000000 -0.2309490000000  0.4462990000000 1.0  -0.00
Li     1  0.2699110000000  0.2309490000000 -0.4462990000000 1.0  -0.00
Li     1 -0.2699110000000  0.3227520000000 -0.4462990000000 1.0  -0.00
Li     1 -0.2699110000000 -0.3227520000000  0.4462990000000 1.0  -0.00
O      2 -0.0000000000000 -0.3427870000000  0.3144270000000 1.0  -0.13
O      2 -0.0000000000000  0.3427870000000 -0.3144270000000 1.0  -0.13
S      3  0.1902460000000  0.0659730000000  0.1924610000000 1.0  -0.01
S      3  0.1902460000000 -0.0659730000000 -0.1924610000000 1.0  -0.01
S      3 -0.1902460000000 -0.1264890000000 -0.1924610000000 1.0  -0.01
S      3 -0.1902460000000  0.1264890000000  0.1924610000000 1.0  -0.01
S      3 -0.4125590000000 -0.0000000000000  0.5000000000000 1.0  -0.01
S      3  0.4125590000000 -0.5000000000000  0.5000000000000 1.0  -0.01
Fe     4 -0.0000000000000 -0.4378830000000  0.1242330000000 1.0  -3.22
Fe     4 -0.0000000000000  0.4378830000000 -0.1242330000000 1.0  -3.22
END
