TITL LFSO-Li6FeS2O2-200920-210953-1ca694 0.4565 253.163281 -3.54571482E+003 2.00025 2.36439 11 (P2) n - 1
REM
REM Run started: Mon, 21 Sep 2020 01:26:26 +0100 in /lustre/scratch/uccabz1/launch_tmp/launcher_2020-09-20-20-09-51-923048
REM CASTEP 20.1 from code version af48c487+ pr-geom-scf-spinfix Tue Jun 2 15:39:59 2020 +0100
REM Functional Perdew Burke Ernzerhof Relativity Koelling-Harmon Dispersion off
REM Cut-off 340.0000 eV Grid scale 1.7500 Gmax 16.5316 1/A FBSC none
REM MP grid 6 2 3 Offset 0.000 0.000 0.000 No. kpts 12 Spacing 0.07
REM Total runtime: 17082.2 s
REM Overall efficiency: 94.75 %
REM
REM
REM
REM compiler GCC version 4.9.2
REM options -cpp -iprefix /lustre/shared/ucl/apps/gcc/4.9.2/bin/../lib/gcc/x86_64-unknown-linux-gnu/4.9.2/ -mtune=corei7 -march=x86-64 -g -Og
REM COMMAND_LINE
REM seed -1422741687 992236289 1872508765 -1409968328 1831581348 -958876821 -364386748 1200388915 -535288891 -19242626 -857780025 -200946349
REM
REM S 3|1.8|5|6|7|30:31:32(qc=5)
REM O 2|1.5|12|13|15|20:21(qc=5)
REM Li 1|1.3|8|9|10|10U:20(qc=5)
REM Fe 3|2.2|2.0|1.0|8|9|10|40:41:32(qc=5)
REM 
CELL 1.54180    3.20429   15.73510    7.32102   90.00000   90.00000  136.69764
LATT -1
SFAC Li O  S  Fe 
Li     1 -1.1270370000000 -0.2210770000000 -0.5077850000000 1.0   0.01
Li     1  1.1270370000000  0.2210770000000 -0.5077850000000 1.0   0.01
Li     1  0.3797990000000  0.1669790000000  0.0989670000000 1.0  -0.01
Li     1 -0.3797990000000 -0.1669790000000  0.0989670000000 1.0  -0.01
Li     1  0.9508850000000 -0.0783580000000  0.3571730000000 1.0  -0.03
Li     1 -0.9508850000000  0.0783580000000  0.3571730000000 1.0  -0.03
O      2 -0.2215570000000  0.1430610000000  0.2688510000000 1.0   0.01
O      2  0.2215570000000 -0.1430610000000  0.2688510000000 1.0   0.01
S      3 -0.5063510000000 -0.1509130000000 -0.2638940000000 1.0  -0.00
S      3  0.5063510000000  0.1509130000000 -0.2638940000000 1.0  -0.00
Fe     4  0.5000000000000  0.0000000000000 -0.2698540000000 1.0   2.05
END
