TITL LFSO-Li4Fe3SO4-200930-193547-c01d8e 0.2321 168.654823 -5.44618359E+003 9.39350 9.73123 12 (Pm) n - 1
REM
REM Run started: Wed, 30 Sep 2020 22:37:33 +0100 in /lustre/scratch/uccabz1/launch_tmp/launcher_2020-09-30-18-35-45-832225
REM CASTEP 20.1 from code version af48c487+ pr-geom-scf-spinfix Tue Jun 2 15:39:59 2020 +0100
REM Functional Perdew Burke Ernzerhof Relativity Koelling-Harmon Dispersion off
REM Cut-off 340.0000 eV Grid scale 1.7500 Gmax 16.5316 1/A FBSC none
REM MP grid 3 5 2 Offset 0.000 0.000 0.000 No. kpts 8 Spacing 0.07
REM Total runtime: 11280 s
REM Overall efficiency: 93.9231 %
REM
REM
REM
REM compiler GCC version 4.9.2
REM options -cpp -iprefix /lustre/shared/ucl/apps/gcc/4.9.2/bin/../lib/gcc/x86_64-unknown-linux-gnu/4.9.2/ -mtune=corei7 -march=x86-64 -g -Og
REM COMMAND_LINE
REM seed 817986939 -833692039 1535411510 -409282047 -565093584 973768843 -1447763895 593752616 861878322 -6369750 -45486679 116949082
REM
REM S 3|1.8|5|6|7|30:31:32(qc=5)
REM O 2|1.5|12|13|15|20:21(qc=5)
REM Li 1|1.3|8|9|10|10U:20(qc=5)
REM Fe 3|2.2|2.0|1.0|8|9|10|40:41:32(qc=5)
REM 
CELL 1.54180    6.17814    3.75392    7.64082   90.00000   90.00000  107.87347
LATT -1
SFAC Li O  S  Fe 
Li     1  0.0976700000000  0.4254740000000 -0.2167400000000 1.0  -0.05
Li     1  0.0976700000000  0.4254740000000  0.2167400000000 1.0  -0.05
Li     1 -0.6299000000000  0.0699990000000 -0.2557160000000 1.0  -0.02
Li     1 -0.6299000000000  0.0699990000000  0.2557160000000 1.0  -0.02
O      2  0.4172000000000  0.5914070000000 -0.2391120000000 1.0   0.27
O      2  0.4172000000000  0.5914070000000  0.2391120000000 1.0   0.27
O      2  0.0231600000000 -0.1103900000000  0.2712640000000 1.0   0.14
O      2  0.0231600000000 -0.1103900000000 -0.2712640000000 1.0   0.14
S      3 -0.2500150000000  0.2536340000000  0.0000000000000 1.0   0.09
Fe     4 -0.2863200000000 -0.2603880000000 -0.2003670000000 1.0   2.89
Fe     4 -0.2863200000000 -0.2603880000000  0.2003670000000 1.0   2.89
Fe     4 -0.0674050000000 -0.1723280000000 -0.5000000000000 1.0   2.84
END
