TITL LFSO-Li4Fe2S3O2-200911-042120-8063cf -0.1529 446.171355 -4.31235328E+003 6.15619 6.69233 11 (Amm2) n - 1
REM
REM Run started: Fri, 11 Sep 2020 07:32:46 +0100 in /lustre/scratch/uccabz1/launch_tmp/launcher_2020-09-11-03-21-19-018346
REM CASTEP 20.1 from code version af48c487+ pr-geom-scf-spinfix Tue Jun 2 15:39:59 2020 +0100
REM Functional Perdew Burke Ernzerhof Relativity Koelling-Harmon Dispersion off
REM Cut-off 340.0000 eV Grid scale 1.7500 Gmax 16.5316 1/A FBSC none
REM MP grid 3 3 2 Offset 0.000 0.000 0.000 No. kpts 4 Spacing 0.07
REM Total runtime: 13579 s
REM Overall efficiency: 96.9167 %
REM
REM
REM
REM compiler GCC version 4.9.2
REM options -cpp -iprefix /lustre/shared/ucl/apps/gcc/4.9.2/bin/../lib/gcc/x86_64-unknown-linux-gnu/4.9.2/ -mtune=corei7 -march=x86-64 -g -Og
REM COMMAND_LINE
REM seed 1566495595 -385203753 1166580551 -245012180 -1630905358 1374608090 1109877881 -571141769 1306744165 608635555 -2135313073 1156008270
REM
REM S 3|1.8|5|6|7|30:31:32(qc=5)
REM O 2|1.5|12|13|15|20:21(qc=5)
REM Li 1|1.3|8|9|10|10U:20(qc=5)
REM Fe 3|2.2|2.0|1.0|8|9|10|40:41:32(qc=5)
REM 
CELL 1.54180    9.44110    9.44110    7.93733   90.00000   90.00000  140.90254
LATT -1
SFAC Li O  S  Fe 
Li     1  0.1998320000000  0.2387770000000  0.2188630000000 1.0  -0.03
Li     1 -0.2387770000000 -0.1998320000000 -0.2188630000000 1.0  -0.03
Li     1 -0.2387770000000 -0.1998320000000  0.2188630000000 1.0  -0.03
Li     1  0.1998320000000  0.2387770000000 -0.2188630000000 1.0  -0.03
O      2 -0.0643920000000  0.0643920000000 -0.3303580000000 1.0   0.21
O      2 -0.0643920000000  0.0643920000000  0.3303580000000 1.0   0.21
S      3  0.3816880000000  0.2862230000000  0.0000000000000 1.0  -0.00
S      3 -0.2862230000000 -0.3816880000000 -0.0000000000000 1.0  -0.00
S      3  0.3478970000000 -0.3478970000000 -0.5000000000000 1.0  -0.01
Fe     4  0.0981660000000  0.2886540000000  0.5000000000000 1.0   2.93
Fe     4 -0.2886540000000 -0.0981660000000  0.5000000000000 1.0   2.93
END
