TITL LFSO-Li3FeSO2-200911-154357-fe68b2 -0.0138 82.789515 -2.64150693E+003 4.66741 4.71102 7 (P3) n - 1
REM
REM Run started: Fri, 11 Sep 2020 16:02:51 +0100 in /lustre/scratch/uccabz1/launch_tmp/launcher_2020-09-11-14-43-56-095585
REM CASTEP 20.1 from code version af48c487+ pr-geom-scf-spinfix Tue Jun 2 15:39:59 2020 +0100
REM Functional Perdew Burke Ernzerhof Relativity Koelling-Harmon Dispersion off
REM Cut-off 340.0000 eV Grid scale 1.7500 Gmax 16.5316 1/A FBSC none
REM MP grid 4 4 4 Offset 0.000 0.000 0.000 No. kpts 32 Spacing 0.07
REM Total runtime: 1177.45 s
REM Overall efficiency: 89.6 %
REM
REM
REM
REM compiler GCC version 4.9.2
REM options -cpp -iprefix /lustre/shared/ucl/apps/gcc/4.9.2/bin/../lib/gcc/x86_64-unknown-linux-gnu/4.9.2/ -mtune=corei7 -march=x86-64 -g -Og
REM COMMAND_LINE
REM seed -339374736 249406982 106157412 -781948784 494403357 -759611837 -815512989 1650534833 933266140 -1293299038 -1925089640 1276861487
REM
REM S 3|1.8|5|6|7|30:31:32(qc=5)
REM O 2|1.5|12|13|15|20:21(qc=5)
REM Li 1|1.3|8|9|10|10U:20(qc=5)
REM Fe 3|2.2|2.0|1.0|8|9|10|40:41:32(qc=5)
REM 
CELL 1.54180    3.79356    5.01994    5.01994  120.00000   90.00000   90.00000
LATT -1
SFAC Li O  S  Fe 
Li     1  0.4811140000000  0.0683530000000 -0.2569210000000 1.0  -0.05
Li     1  0.4811140000000  0.2569210000000  0.3252740000000 1.0  -0.05
Li     1  0.4811140000000 -0.3252740000000 -0.0683530000000 1.0  -0.05
O      2  0.5375140000000 -0.3333330000000  0.3333330000000 1.0   0.32
O      2  0.2026210000000 -0.0000000000000  0.0000000000000 1.0   0.43
S      3 -0.0046050000000  0.3333330000000 -0.3333330000000 1.0   0.34
Fe     4  0.0329270000000 -0.3333330000000  0.3333330000000 1.0   3.73
END
