TITL LFSO-Li4Fe3SO4-200930-104838-0f038a -0.0290 201.305816 -5.44455155E+003 9.97790 10.3355 12 (R3) n - 1
REM
REM Run started: Wed, 30 Sep 2020 11:56:13 +0100 in /lustre/scratch/uccabz1/launch_tmp/launcher_2020-09-30-09-48-36-990474
REM CASTEP 20.1 from code version af48c487+ pr-geom-scf-spinfix Tue Jun 2 15:39:59 2020 +0100
REM Functional Perdew Burke Ernzerhof Relativity Koelling-Harmon Dispersion off
REM Cut-off 340.0000 eV Grid scale 1.7500 Gmax 16.5316 1/A FBSC none
REM MP grid 3 3 3 Offset 0.000 0.000 0.000 No. kpts 6 Spacing 0.07
REM Total runtime: 4092.66 s
REM Overall efficiency: 89.5556 %
REM
REM
REM
REM compiler GCC version 4.9.2
REM options -cpp -iprefix /lustre/shared/ucl/apps/gcc/4.9.2/bin/../lib/gcc/x86_64-unknown-linux-gnu/4.9.2/ -mtune=corei7 -march=x86-64 -g -Og
REM COMMAND_LINE
REM seed -467272565 2067489685 1396530102 -1928254267 1108557272 454972890 -992669896 -1896061234 694076133 1974792601 -1355316518 -107333308
REM
REM S 3|1.8|5|6|7|30:31:32(qc=5)
REM O 2|1.5|12|13|15|20:21(qc=5)
REM Li 1|1.3|8|9|10|10U:20(qc=5)
REM Fe 3|2.2|2.0|1.0|8|9|10|40:41:32(qc=5)
REM 
CELL 1.54180    6.11375    6.11375    6.11375  104.64186  104.64186  104.64186
LATT -1
SFAC Li O  S  Fe 
Li     1 -0.1392370000000 -0.2945010000000  0.3866070000000 1.0  -0.06
Li     1  0.3866070000000 -0.1392370000000 -0.2945010000000 1.0  -0.06
Li     1 -0.2945010000000  0.3866070000000 -0.1392370000000 1.0  -0.06
Li     1 -0.0565500000000 -0.0565500000000 -0.0565500000000 1.0   0.07
O      2 -0.1813290000000  0.4015590000000  0.1752130000000 1.0   0.20
O      2  0.1752130000000 -0.1813290000000  0.4015590000000 1.0   0.20
O      2  0.4015590000000  0.1752130000000 -0.1813290000000 1.0   0.20
O      2  0.1848360000000  0.1848360000000  0.1848360000000 1.0   0.20
S      3 -0.3941480000000 -0.3941480000000 -0.3941480000000 1.0   0.08
Fe     4  0.4993670000000  0.2955930000000  0.1610020000000 1.0   3.07
Fe     4  0.1610020000000  0.4993670000000  0.2955930000000 1.0   3.07
Fe     4  0.2955930000000  0.1610020000000  0.4993670000000 1.0   3.07
END
