TITL LFSO-Li2Fe4SO4-200911-231401-720dbc -0.0325 164.069325 -5.90821583E+003 -15.9165 16.0644 11 (Cm) n - 1
REM
REM Run started: Sat, 12 Sep 2020 01:43:17 +0100 in /lustre/scratch/uccabz1/launch_tmp/launcher_2020-09-11-22-13-59-472049
REM CASTEP 20.1 from code version af48c487+ pr-geom-scf-spinfix Tue Jun 2 15:39:59 2020 +0100
REM Functional Perdew Burke Ernzerhof Relativity Koelling-Harmon Dispersion off
REM Cut-off 340.0000 eV Grid scale 1.7500 Gmax 16.5316 1/A FBSC none
REM MP grid 3 3 3 Offset 0.000 0.000 0.000 No. kpts 10 Spacing 0.07
REM Total runtime: 9009.95 s
REM Overall efficiency: 82.3 %
REM
REM
REM
REM compiler GCC version 4.9.2
REM options -cpp -iprefix /lustre/shared/ucl/apps/gcc/4.9.2/bin/../lib/gcc/x86_64-unknown-linux-gnu/4.9.2/ -mtune=corei7 -march=x86-64 -g -Og
REM COMMAND_LINE
REM seed -1997655601 -1825707552 1353269256 1335273790 -1070155295 757809235 1696726616 -227049276 181076125 658838652 -766994905 1737900866
REM
REM S 3|1.8|5|6|7|30:31:32(qc=5)
REM O 2|1.5|12|13|15|20:21(qc=5)
REM Li 1|1.3|8|9|10|10U:20(qc=5)
REM Fe 3|2.2|2.0|1.0|8|9|10|40:41:32(qc=5)
REM 
CELL 1.54180    5.10840    6.08874    6.08874  119.84265   91.41714   91.41714
LATT -1
SFAC Li O  S  Fe 
Li     1 -0.7383910000000  0.1888120000000 -0.0959810000000 1.0   0.04
Li     1 -0.7383910000000 -0.0959810000000  0.1888120000000 1.0   0.04
O      2 -0.0390630000000 -0.2120770000000  0.2770200000000 1.0  -0.47
O      2 -0.0390630000000  0.2770200000000 -0.2120770000000 1.0  -0.47
O      2  0.4248430000000  0.0771800000000 -0.4625000000000 1.0  -0.32
O      2  0.4248430000000 -0.4625000000000  0.0771800000000 1.0  -0.32
S      3  0.0582580000000 -0.2295670000000 -0.2295670000000 1.0  -0.21
Fe     4  0.3113670000000  0.4235740000000 -0.3165770000000 1.0  -3.42
Fe     4  0.3113670000000 -0.3165770000000  0.4235740000000 1.0  -3.42
Fe     4 -0.2298140000000 -0.4342450000000 -0.0375410000000 1.0  -3.70
Fe     4 -0.2298140000000 -0.0375410000000 -0.4342450000000 1.0  -3.70
END
