TITL LFSO-LiFe3S2O3-200909-160103-d120e4 0.0151 250.560925 -9.42216683E+003 13.9284 14.8875 18 (I-4) n - 1
REM
REM Run started: Thu, 10 Sep 2020 03:15:35 +0100 in /lustre/scratch/uccabz1/launch_tmp/launcher_2020-09-09-15-01-01-643054
REM CASTEP 20.1 from code version af48c487+ pr-geom-scf-spinfix Tue Jun 2 15:39:59 2020 +0100
REM Functional Perdew Burke Ernzerhof Relativity Koelling-Harmon Dispersion off
REM Cut-off 340.0000 eV Grid scale 1.7500 Gmax 16.5316 1/A FBSC none
REM MP grid 3 3 3 Offset 0.000 0.000 0.000 No. kpts 6 Spacing 0.07
REM Total runtime: 40850.2 s
REM Overall efficiency: 98 %
REM
REM
REM
REM compiler GCC version 4.9.2
REM options -cpp -iprefix /lustre/shared/ucl/apps/gcc/4.9.2/bin/../lib/gcc/x86_64-unknown-linux-gnu/4.9.2/ -mtune=corei7 -march=x86-64 -g -Og
REM COMMAND_LINE
REM seed 2039384568 -2073348100 -467970331 -310078409 -34376783 1899978967 -260463 -246609713 1268725216 1073318452 397664833 -1317761079
REM
REM S 3|1.8|5|6|7|30:31:32(qc=5)
REM O 2|1.5|12|13|15|20:21(qc=5)
REM Li 1|1.3|8|9|10|10U:20(qc=5)
REM Fe 3|2.2|2.0|1.0|8|9|10|40:41:32(qc=5)
REM 
CELL 1.54180    6.06165    6.06165    8.05438  112.10441  112.10441   90.00000
LATT -1
SFAC Li O  S  Fe 
Li     1 -0.4194130000000 -0.4194130000000  0.1611730000000 1.0  -0.03
Li     1  0.4194130000000  0.4194130000000 -0.1611730000000 1.0  -0.03
O      2  0.2908560000000  0.3850700000000  0.1040470000000 1.0   0.24
O      2 -0.1868090000000 -0.2810230000000  0.1040470000000 1.0   0.24
O      2  0.2810230000000 -0.2908560000000 -0.1040470000000 1.0   0.24
O      2 -0.3850700000000  0.1868090000000 -0.1040470000000 1.0   0.24
O      2  0.1268950000000  0.1268950000000  0.2537890000000 1.0   0.45
O      2 -0.1268950000000 -0.1268950000000 -0.2537890000000 1.0   0.45
S      3  0.0407560000000  0.1899220000000 -0.3776270000000 1.0  -0.10
S      3 -0.4183830000000  0.4324510000000 -0.3776270000000 1.0  -0.10
S      3 -0.4324510000000 -0.0407560000000  0.3776270000000 1.0  -0.10
S      3 -0.1899220000000  0.4183830000000  0.3776270000000 1.0  -0.10
Fe     4 -0.1188590000000  0.0393970000000  0.2945830000000 1.0   1.32
Fe     4  0.4134430000000 -0.7448140000000  0.2945830000000 1.0   1.32
Fe     4  0.7448140000000  0.1188590000000 -0.2945830000000 1.0   1.32
Fe     4 -0.0393970000000 -0.4134430000000 -0.2945830000000 1.0   1.32
Fe     4  0.4885380000000 -0.0114620000000 -0.0229240000000 1.0   3.63
Fe     4  0.0114620000000 -0.4885380000000  0.0229240000000 1.0   3.63
END
