TITL LFSO-Li2FeSO-200912-034159-5a0fba 0.0779 68.067122 -2.00471106E+003 0.129842 0.471338 5 (P3m1) n - 1
REM
REM Run started: Sat, 12 Sep 2020 03:55:02 +0100 in /lustre/scratch/uccabz1/launch_tmp/launcher_2020-09-12-02-41-56-905091
REM CASTEP 20.1 from code version af48c487+ pr-geom-scf-spinfix Tue Jun 2 15:39:59 2020 +0100
REM Functional Perdew Burke Ernzerhof Relativity Koelling-Harmon Dispersion off
REM Cut-off 340.0000 eV Grid scale 1.7500 Gmax 16.5316 1/A FBSC none
REM MP grid 5 5 3 Offset 0.000 0.000 0.000 No. kpts 12 Spacing 0.07
REM Total runtime: 923.28 s
REM Overall efficiency: 86.7143 %
REM
REM
REM
REM compiler GCC version 4.9.2
REM options -cpp -iprefix /lustre/shared/ucl/apps/gcc/4.9.2/bin/../lib/gcc/x86_64-unknown-linux-gnu/4.9.2/ -mtune=corei7 -march=x86-64 -g -Og
REM COMMAND_LINE
REM seed 1884794740 -313763282 125511648 1752729169 -1066591744 776696810 -1420464120 1761614232 936245107 -855719112 -1767626000 -448516499
REM
REM S 3|1.8|5|6|7|30:31:32(qc=5)
REM O 2|1.5|12|13|15|20:21(qc=5)
REM Li 1|1.3|8|9|10|10U:20(qc=5)
REM Fe 3|2.2|2.0|1.0|8|9|10|40:41:32(qc=5)
REM 
CELL 1.54180    3.37846    3.37846    6.88602   90.00000   90.00000  120.00000
LATT -1
SFAC Li O  S  Fe 
Li     1 -0.3333330000000  0.3333330000000  0.4268180000000 1.0  -0.04
Li     1 -0.3333330000000  0.3333330000000 -0.1805580000000 1.0   0.01
O      2  0.0000000000000  0.0000000000000 -0.1856980000000 1.0   0.06
S      3  0.3333330000000 -0.3333330000000  0.2228080000000 1.0  -0.03
Fe     4  0.0000000000000  0.0000000000000  0.0776950000000 1.0   0.13
END
