TITL LFSO-LiFeSO-200921-170205-f18d75 0.0085 384.060174 -1.08324591E+004 -21.7652 22.0260 24 (P21) n - 1
REM
REM Run started: Tue, 22 Sep 2020 12:14:51 +0100 in /lustre/scratch/uccabz1/launch_tmp/launcher_2020-09-21-16-02-04-125340
REM CASTEP 20.1 from code version af48c487+ pr-geom-scf-spinfix Tue Jun 2 15:39:59 2020 +0100
REM Functional Perdew Burke Ernzerhof Relativity Koelling-Harmon Dispersion off
REM Cut-off 340.0000 eV Grid scale 1.7500 Gmax 16.5316 1/A FBSC none
REM MP grid 3 3 2 Offset 0.000 0.000 0.000 No. kpts 6 Spacing 0.07
REM Total runtime: 69402.4 s
REM Overall efficiency: 96.7273 %
REM
REM
REM
REM compiler GCC version 4.9.2
REM options -cpp -iprefix /lustre/shared/ucl/apps/gcc/4.9.2/bin/../lib/gcc/x86_64-unknown-linux-gnu/4.9.2/ -mtune=corei7 -march=x86-64 -g -Og
REM COMMAND_LINE
REM seed 425962070 -347186023 361256775 1598256810 -2142706791 -238391123 198717724 -1278406658 -910257684 -197953668 -1438538748 -1650377736
REM
REM S 3|1.8|5|6|7|30:31:32(qc=5)
REM O 2|1.5|12|13|15|20:21(qc=5)
REM Li 1|1.3|8|9|10|10U:20(qc=5)
REM Fe 3|2.2|2.0|1.0|8|9|10|40:41:32(qc=5)
REM 
CELL 1.54180    6.01934    6.74132    9.88948  106.85457   90.00000   90.00000
LATT -1
SFAC Li O  S  Fe 
Li     1 -0.0513870000000  0.2634490000000 -0.2490350000000 1.0  -0.03
Li     1  0.4486130000000 -0.2634490000000  0.2490350000000 1.0  -0.03
Li     1 -0.1420380000000 -0.2624120000000 -0.0451200000000 1.0   0.01
Li     1  0.3579620000000  0.2624120000000  0.0451200000000 1.0   0.01
Li     1 -0.2020430000000  0.1832210000000 -0.0151980000000 1.0   0.00
Li     1  0.2979570000000 -0.1832210000000  0.0151980000000 1.0   0.00
O      2 -0.6317880000000 -0.4491030000000  0.0508930000000 1.0  -0.28
O      2 -0.1317880000000  0.4491030000000 -0.0508930000000 1.0  -0.28
O      2  0.0506250000000  0.2574500000000  0.1323810000000 1.0  -0.26
O      2  0.5506250000000 -0.2574500000000 -0.1323810000000 1.0  -0.26
O      2 -0.4967030000000  0.1823720000000 -0.1264020000000 1.0  -0.29
O      2  0.0032970000000 -0.1823720000000  0.1264020000000 1.0  -0.29
S      3  0.5255580000000  0.0958490000000  0.2077210000000 1.0  -0.18
S      3  0.0255580000000 -0.0958490000000 -0.2077210000000 1.0  -0.18
S      3 -0.4332500000000 -0.1712280000000 -0.4553970000000 1.0  -0.30
S      3  0.0667500000000  0.1712280000000  0.4553970000000 1.0  -0.30
S      3  0.1132630000000 -0.3662570000000 -0.6421370000000 1.0  -0.18
S      3 -0.3867370000000  0.3662570000000  0.6421370000000 1.0  -0.18
Fe     4 -0.0967680000000  0.0759350000000  0.2400910000000 1.0  -3.48
Fe     4  0.4032320000000 -0.0759350000000 -0.2400910000000 1.0  -3.48
Fe     4 -0.4589790000000  0.4614900000000 -0.1187800000000 1.0  -2.96
Fe     4  0.0410210000000 -0.4614900000000  0.1187800000000 1.0  -2.96
Fe     4 -0.2700440000000 -0.3124300000000 -0.3120350000000 1.0  -2.93
Fe     4  0.2299560000000  0.3124300000000  0.3120350000000 1.0  -2.93
END
