TITL LFSO-Li2Fe2S3O-200913-044807-f25d04 0.0060 441.077958 -1.04315198E+004 1.76311 19.3462 24 (P32) n - 1
REM
REM Run started: Sun, 13 Sep 2020 19:24:24 +0100 in /lustre/scratch/uccabz1/launch_tmp/launcher_2020-09-13-03-48-06-319986
REM CASTEP 20.1 from code version af48c487+ pr-geom-scf-spinfix Tue Jun 2 15:39:59 2020 +0100
REM Functional Perdew Burke Ernzerhof Relativity Koelling-Harmon Dispersion off
REM Cut-off 340.0000 eV Grid scale 1.7500 Gmax 16.5316 1/A FBSC none
REM MP grid 3 2 2 Offset 0.000 0.000 0.000 No. kpts 6 Spacing 0.07
REM Total runtime: 52828.6 s
REM Overall efficiency: 98.625 %
REM
REM
REM
REM compiler GCC version 4.9.2
REM options -cpp -iprefix /lustre/shared/ucl/apps/gcc/4.9.2/bin/../lib/gcc/x86_64-unknown-linux-gnu/4.9.2/ -mtune=corei7 -march=x86-64 -g -Og
REM COMMAND_LINE
REM seed -2068670284 -1502203525 -1768640002 823955583 -1967850422 -1832240722 -1580844816 -320657361 -321170270 638532030 -720098309 -1416623739
REM
REM S 3|1.8|5|6|7|30:31:32(qc=5)
REM O 2|1.5|12|13|15|20:21(qc=5)
REM Li 1|1.3|8|9|10|10U:20(qc=5)
REM Fe 3|2.2|2.0|1.0|8|9|10|40:41:32(qc=5)
REM 
CELL 1.54180    6.68474    8.72871    8.72871  120.00000   90.00000   90.00000
LATT -1
SFAC Li O  S  Fe 
Li     1 -0.1524270000000 -0.2911220000000  0.2922260000000 1.0   0.01
Li     1  0.1809060000000 -0.4166520000000  0.2911220000000 1.0   0.01
Li     1 -0.4857600000000 -0.2922260000000  0.4166520000000 1.0   0.01
Li     1  0.3984540000000 -0.0226580000000  0.2756900000000 1.0  -0.03
Li     1 -0.2682130000000  0.2983470000000  0.0226580000000 1.0  -0.03
Li     1  0.0651210000000 -0.2756900000000 -0.2983470000000 1.0  -0.03
O      2  0.1447290000000  0.1396150000000  0.4215930000000 1.0   0.01
O      2  0.4780620000000  0.2819780000000 -0.1396150000000 1.0   0.01
O      2 -0.1886050000000 -0.4215930000000 -0.2819780000000 1.0   0.01
S      3 -0.4147810000000 -0.3338350000000  0.0908190000000 1.0   0.13
S      3 -0.0814480000000  0.4246530000000  0.3338350000000 1.0   0.13
S      3  0.2518860000000 -0.0908190000000 -0.4246530000000 1.0   0.13
S      3  0.4483060000000  0.3925060000000  0.2845080000000 1.0   0.11
S      3 -0.2183610000000 -0.1079970000000 -0.3925060000000 1.0   0.11
S      3  0.1149720000000 -0.2845080000000  0.1079970000000 1.0   0.11
S      3 -0.3240130000000  0.1602510000000  0.4736490000000 1.0   0.00
S      3  0.0093200000000  0.3133980000000 -0.1602510000000 1.0   0.00
S      3  0.3426530000000 -0.4736490000000 -0.3133980000000 1.0   0.00
Fe     4  0.1952270000000  0.3426700000000  0.4252530000000 1.0   3.18
Fe     4  0.5285610000000  0.0825830000000 -0.3426700000000 1.0   3.18
Fe     4 -0.1381060000000 -0.4252530000000 -0.0825830000000 1.0   3.18
Fe     4  0.3225170000000  0.4721160000000 -0.0804020000000 1.0  -2.83
Fe     4 -0.3441490000000  0.4474830000000 -0.4721160000000 1.0  -2.83
Fe     4 -0.0108160000000  0.0804020000000 -0.4474830000000 1.0  -2.83
END
