TITL LFSO-Li3Fe3S2O4-200928-165259-0be4a6 0.0122 350.990316 -1.11003292E+004 17.2743 17.8043 24 (Cc) n - 1
REM
REM Run started: Tue, 29 Sep 2020 11:28:10 +0100 in /lustre/scratch/uccabz1/launch_tmp/launcher_2020-09-29-05-26-02-058613
REM CASTEP 20.1 from code version af48c487+ pr-geom-scf-spinfix Tue Jun 2 15:39:59 2020 +0100
REM Functional Perdew Burke Ernzerhof Relativity Koelling-Harmon Dispersion off
REM Cut-off 340.0000 eV Grid scale 1.7500 Gmax 16.5316 1/A FBSC none
REM MP grid 3 3 2 Offset 0.000 0.000 0.000 No. kpts 8 Spacing 0.07
REM Total runtime: 69354.7 s
REM Overall efficiency: 96.3636 %
REM
REM
REM
REM compiler GCC version 4.9.2
REM options -cpp -iprefix /lustre/shared/ucl/apps/gcc/4.9.2/bin/../lib/gcc/x86_64-unknown-linux-gnu/4.9.2/ -mtune=corei7 -march=x86-64 -g -Og
REM COMMAND_LINE
REM seed -104461925 -2021887279 8667389 -852736447 146282992 -556789292 1967121281 -169166946 448523491 952742312 187696277 -754408576
REM
REM S 3|1.8|5|6|7|30:31:32(qc=5)
REM O 2|1.5|12|13|15|20:21(qc=5)
REM Li 1|1.3|8|9|10|10U:20(qc=5)
REM Fe 3|2.2|2.0|1.0|8|9|10|40:41:32(qc=5)
REM 
CELL 1.54180    5.98396    7.67357    8.72149   63.90103   84.49606   77.40696
LATT -1
SFAC Li O  S  Fe 
Li     1  0.2884830000000 -0.2919040000000 -0.1458640000000 1.0  -0.00
Li     1 -0.2115170000000 -0.4377680000000  0.1458640000000 1.0  -0.00
Li     1  0.3356240000000  0.3998140000000 -0.2782420000000 1.0  -0.00
Li     1 -0.1643760000000  0.1215720000000  0.2782420000000 1.0  -0.00
Li     1  0.1512510000000  0.1801750000000 -0.4313980000000 1.0  -0.00
Li     1 -0.3487490000000 -0.2512230000000  0.4313980000000 1.0  -0.00
O      2  0.2712460000000  0.4092780000000  0.5156750000000 1.0   0.39
O      2 -0.2287540000000 -0.0750460000000 -0.5156750000000 1.0   0.39
O      2 -0.2150900000000  0.1527330000000  0.0220370000000 1.0   0.13
O      2  0.2849100000000  0.1747690000000 -0.0220370000000 1.0   0.13
O      2  0.5542150000000 -0.3257840000000  0.2697130000000 1.0   0.13
O      2  0.0542150000000 -0.0560710000000 -0.2697130000000 1.0   0.13
O      2 -0.3926210000000  0.3692200000000  0.1865100000000 1.0   0.15
O      2  0.1073790000000 -0.4442700000000 -0.1865100000000 1.0   0.15
S      3  0.0870230000000 -0.2304620000000  0.1390070000000 1.0   0.17
S      3 -0.4129770000000 -0.0914550000000 -0.1390070000000 1.0   0.17
S      3 -0.3205590000000 -0.4644640000000 -0.2609540000000 1.0   0.05
S      3  0.1794410000000  0.2745830000000  0.2609540000000 1.0   0.05
Fe     4  0.3955710000000 -0.1030990000000  0.0975200000000 1.0   2.60
Fe     4 -0.1044290000000 -0.0055790000000 -0.0975200000000 1.0   2.60
Fe     4 -0.5294430000000  0.2552930000000  0.0848530000000 1.0   2.50
Fe     4 -0.0294430000000  0.3401470000000 -0.0848530000000 1.0   2.50
Fe     4  0.3664600000000  0.4771450000000  0.3074380000000 1.0   2.54
Fe     4 -0.1335400000000 -0.2154170000000 -0.3074380000000 1.0   2.54
END
