TITL LFSO-LiFe3S2O3-200909-191249-480a2d 0.0318 230.449459 -9.42342874E+003 -0.123094E-01 0.955727E-01 18 (Cc) n - 1
REM
REM Run started: Thu, 10 Sep 2020 03:43:03 +0100 in /lustre/scratch/uccabz1/launch_tmp/launcher_2020-09-09-18-12-47-857417
REM CASTEP 20.1 from code version af48c487+ pr-geom-scf-spinfix Tue Jun 2 15:39:59 2020 +0100
REM Functional Perdew Burke Ernzerhof Relativity Koelling-Harmon Dispersion off
REM Cut-off 340.0000 eV Grid scale 1.7500 Gmax 16.5316 1/A FBSC none
REM MP grid 5 2 2 Offset 0.000 0.000 0.000 No. kpts 8 Spacing 0.07
REM Total runtime: 30708.2 s
REM Overall efficiency: 96.625 %
REM
REM
REM
REM compiler GCC version 4.9.2
REM options -cpp -iprefix /lustre/shared/ucl/apps/gcc/4.9.2/bin/../lib/gcc/x86_64-unknown-linux-gnu/4.9.2/ -mtune=corei7 -march=x86-64 -g -Og
REM COMMAND_LINE
REM seed 1456522373 437658148 -1335037168 587377440 -199116166 -631848275 -134279558 196600508 1434327079 125531970 -512848563 1152803224
REM
REM S 3|1.8|5|6|7|30:31:32(qc=5)
REM O 2|1.5|12|13|15|20:21(qc=5)
REM Li 1|1.3|8|9|10|10U:20(qc=5)
REM Fe 3|2.2|2.0|1.0|8|9|10|40:41:32(qc=5)
REM 
CELL 1.54180    3.30971    8.34978    8.34978   92.79925   89.42158   89.42158
LATT -1
SFAC Li O  S  Fe 
Li     1  0.1368080000000  0.1565060000000  0.4497490000000 1.0   0.00
Li     1 -0.3631920000000  0.4497490000000  0.1565060000000 1.0   0.00
O      2  0.1273260000000  0.5089740000000  0.2566980000000 1.0   0.00
O      2 -0.3726740000000  0.2566980000000  0.5089740000000 1.0   0.00
O      2  0.0902200000000  0.0771840000000  0.2322180000000 1.0  -0.00
O      2 -0.4097800000000  0.2322180000000  0.0771840000000 1.0  -0.00
O      2  0.0987500000000  0.1577480000000 -0.1968360000000 1.0  -0.00
O      2 -0.4012500000000 -0.1968360000000  0.1577480000000 1.0  -0.00
S      3 -0.4014900000000 -0.1150010000000 -0.3763070000000 1.0  -0.00
S      3  0.0985100000000 -0.3763070000000 -0.1150010000000 1.0  -0.00
S      3 -0.3892870000000  0.4036980000000 -0.3634070000000 1.0  -0.00
S      3  0.1107130000000 -0.3634070000000  0.4036980000000 1.0  -0.00
Fe     4  0.5923330000000  0.0175910000000  0.1595510000000 1.0  -0.01
Fe     4  0.0923330000000  0.1595510000000  0.0175910000000 1.0  -0.01
Fe     4 -0.4084530000000 -0.2231860000000 -0.0543390000000 1.0   0.02
Fe     4  0.0915470000000 -0.0543390000000 -0.2231860000000 1.0   0.02
Fe     4  0.1038310000000  0.3761130000000 -0.2023840000000 1.0  -0.01
Fe     4 -0.3961690000000 -0.2023840000000  0.3761130000000 1.0  -0.01
END
