TITL LFSO-Li4Fe3SO4-200928-021524-84109c -0.1264 134.825676 -5.44585754E+003 7.91146 8.28681 12 (Cm) n - 1
REM
REM Run started: Mon, 28 Sep 2020 13:50:38 +0100 in /scratch/scratch/uccabz1/launch_tmp/launcher_2020-09-28-01-15-22-559072
REM CASTEP 19.11| from code version Version unavailable
REM Functional Perdew Burke Ernzerhof Relativity Koelling-Harmon Dispersion off
REM Cut-off 340.0000 eV Grid scale 1.7500 Gmax 16.5316 1/A FBSC none
REM MP grid 5 6 6 Offset 0.000 0.000 0.000 No. kpts 54 Spacing 0.07
REM Total runtime: 52664.6 s
REM Overall efficiency: 88.5 %
REM
REM
REM
REM compiler GCC version 4.9.2
REM options -cpp -iprefix /scratch/UCL/applications/gcc/4.9.2/bin/../lib/gcc/x86_64-unknown-linux-gnu/4.9.2/ -mtune=corei7 -march=x86-64 -g -O2
REM COMMAND_LINE
REM seed -1612909986 114943423 155401714 -793171127 -1720685290 -1550012281 1909674930 444255765 1289354848 -858055230 -1732187562 -1712904376
REM
REM S 3|1.8|5|6|7|30:31:32(qc=5)
REM O 2|1.5|12|13|15|20:21(qc=5)
REM Li 1|1.3|8|9|10|10U:20(qc=5)
REM Fe 3|2.2|2.0|1.0|8|9|10|40:41:32(qc=5)
REM 
CELL 1.54180   11.21045    6.70888    6.70888   83.82177   44.20892   44.20892
LATT -1
SFAC Li O  S  Fe 
Li     1  0.3295730000000 -0.0600790000000 -0.5362830000000 1.0  -0.05
Li     1  0.3295730000000 -0.5362830000000 -0.0600790000000 1.0  -0.05
Li     1  0.1103220000000  0.0362610000000 -0.6707720000000 1.0  -0.02
Li     1  0.1103220000000 -0.6707720000000  0.0362610000000 1.0  -0.02
O      2 -0.1493080000000 -0.1095360000000  0.2038260000000 1.0   0.13
O      2 -0.1493080000000  0.2038260000000 -0.1095360000000 1.0   0.13
O      2 -0.2871170000000 -0.3842410000000  0.2986220000000 1.0   0.13
O      2 -0.2871170000000  0.2986220000000 -0.3842410000000 1.0   0.13
S      3 -0.1414180000000 -0.3326020000000 -0.3326020000000 1.0   0.09
Fe     4 -0.2587790000000  0.1099450000000 -0.1408170000000 1.0   2.55
Fe     4 -0.2587790000000 -0.1408170000000  0.1099450000000 1.0   2.55
Fe     4  0.7864820000000  0.2462710000000  0.2462710000000 1.0   2.34
END
