TITL LFSO-Li2FeSO-200912-063531-d77965 -0.0066 286.251081 -8.02150455E+003 14.2471 14.6256 20 (Pba2) n - 1
REM
REM Run started: Sat, 12 Sep 2020 09:27:26 +0100 in /lustre/scratch/uccabz1/launch_tmp/launcher_2020-09-12-05-35-29-726310
REM CASTEP 20.1 from code version af48c487+ pr-geom-scf-spinfix Tue Jun 2 15:39:59 2020 +0100
REM Functional Perdew Burke Ernzerhof Relativity Koelling-Harmon Dispersion off
REM Cut-off 340.0000 eV Grid scale 1.7500 Gmax 16.5316 1/A FBSC none
REM MP grid 5 2 2 Offset 0.000 0.000 0.000 No. kpts 3 Spacing 0.07
REM Total runtime: 11360.5 s
REM Overall efficiency: 95.1111 %
REM
REM
REM
REM compiler GCC version 4.9.2
REM options -cpp -iprefix /lustre/shared/ucl/apps/gcc/4.9.2/bin/../lib/gcc/x86_64-unknown-linux-gnu/4.9.2/ -mtune=corei7 -march=x86-64 -g -Og
REM COMMAND_LINE
REM seed -938463363 1022038796 -89183250 -2056235935 308423650 1930994265 -1197440279 1641152008 -911866606 -713192929 375701997 1403702570
REM
REM S 3|1.8|5|6|7|30:31:32(qc=5)
REM O 2|1.5|12|13|15|20:21(qc=5)
REM Li 1|1.3|8|9|10|10U:20(qc=5)
REM Fe 3|2.2|2.0|1.0|8|9|10|40:41:32(qc=5)
REM 
CELL 1.54180    3.01530    9.53798    9.95315   90.00000   90.00000   90.00000
LATT -1
SFAC Li O  S  Fe 
Li     1  0.1511990000000  0.3697290000000 -0.3420340000000 1.0  -0.01
Li     1  0.1511990000000 -0.3697290000000  0.3420340000000 1.0  -0.01
Li     1  0.1511990000000 -0.1302710000000 -0.1579660000000 1.0  -0.01
Li     1  0.1511990000000  0.1302710000000  0.1579660000000 1.0  -0.01
Li     1  0.1482200000000 -0.1107910000000  0.1396760000000 1.0  -0.00
Li     1  0.1482200000000  0.1107910000000 -0.1396760000000 1.0  -0.00
Li     1  0.1482200000000  0.3892090000000  0.3603240000000 1.0  -0.00
Li     1  0.1482200000000 -0.3892090000000 -0.3603240000000 1.0  -0.00
O      2  0.6501180000000  0.0049130000000  0.1847390000000 1.0   0.17
O      2  0.6501180000000 -0.0049130000000 -0.1847390000000 1.0   0.17
O      2  0.6501180000000  0.5049130000000  0.3152610000000 1.0   0.17
O      2  0.6501180000000 -0.5049130000000 -0.3152610000000 1.0   0.17
S      3 -0.8192150000000  0.1659580000000 -0.5037050000000 1.0   0.17
S      3 -0.8192150000000 -0.1659580000000  0.5037050000000 1.0   0.17
S      3 -0.8192150000000 -0.3340420000000  0.0037050000000 1.0   0.17
S      3 -0.8192150000000  0.3340420000000 -0.0037050000000 1.0   0.17
Fe     4 -0.3119820000000 -0.0089730000000  0.3752160000000 1.0   3.24
Fe     4 -0.3119820000000  0.0089730000000 -0.3752160000000 1.0   3.24
Fe     4 -0.3119820000000 -0.5089730000000  0.1247840000000 1.0   3.24
Fe     4 -0.3119820000000  0.5089730000000 -0.1247840000000 1.0   3.24
END
