TITL LFSO-Li4Fe2S4O-200910-172558-d68827 -0.0059 346.433877 -8.35894688E+003 10.2285 10.8598 22 (Cmc21) n - 1
REM
REM Run started: Fri, 11 Sep 2020 01:20:28 +0100 in /lustre/scratch/uccabz1/launch_tmp/launcher_2020-09-10-16-25-56-947046
REM CASTEP 20.1 from code version af48c487+ pr-geom-scf-spinfix Tue Jun 2 15:39:59 2020 +0100
REM Functional Perdew Burke Ernzerhof Relativity Koelling-Harmon Dispersion off
REM Cut-off 340.0000 eV Grid scale 1.7500 Gmax 16.5316 1/A FBSC none
REM MP grid 3 2 2 Offset 0.000 0.000 0.000 No. kpts 4 Spacing 0.07
REM Total runtime: 30994.8 s
REM Overall efficiency: 98.4167 %
REM
REM
REM
REM compiler GCC version 4.9.2
REM options -cpp -iprefix /lustre/shared/ucl/apps/gcc/4.9.2/bin/../lib/gcc/x86_64-unknown-linux-gnu/4.9.2/ -mtune=corei7 -march=x86-64 -g -Og
REM COMMAND_LINE
REM seed 1661792560 -911923269 -521160726 1545768948 1402615246 1602354538 -803941229 246394408 298531489 840093216 -1666415319 -1379007583
REM
REM S 3|1.8|5|6|7|30:31:32(qc=5)
REM O 2|1.5|12|13|15|20:21(qc=5)
REM Li 1|1.3|8|9|10|10U:20(qc=5)
REM Fe 3|2.2|2.0|1.0|8|9|10|40:41:32(qc=5)
REM 
CELL 1.54180    6.26480    7.54662    7.54662  103.83853   90.00000   90.00000
LATT -1
SFAC Li O  S  Fe 
Li     1  0.5376360000000 -0.5259930000000 -0.2889060000000 1.0  -0.00
Li     1  0.0376360000000  0.5259930000000  0.2889060000000 1.0  -0.00
Li     1  0.0376360000000  0.2889060000000  0.5259930000000 1.0  -0.00
Li     1  0.5376360000000 -0.2889060000000 -0.5259930000000 1.0  -0.00
Li     1  0.2469900000000 -0.2873630000000 -0.0715050000000 1.0  -0.01
Li     1 -0.2530100000000  0.2873630000000  0.0715050000000 1.0  -0.01
Li     1 -0.2530100000000  0.0715050000000  0.2873630000000 1.0  -0.01
Li     1  0.2469900000000 -0.0715050000000 -0.2873630000000 1.0  -0.01
O      2 -0.0289970000000  0.2509600000000  0.2509600000000 1.0   0.07
O      2  0.4710030000000 -0.2509600000000 -0.2509600000000 1.0   0.07
S      3 -0.0850250000000  0.5634910000000 -0.2564830000000 1.0   0.02
S      3 -0.5850250000000 -0.5634910000000  0.2564830000000 1.0   0.02
S      3 -0.5850250000000  0.2564830000000 -0.5634910000000 1.0   0.02
S      3 -0.0850250000000 -0.2564830000000  0.5634910000000 1.0   0.02
S      3  0.4688550000000  0.1933640000000 -0.1576550000000 1.0   0.03
S      3 -0.0311450000000 -0.1933640000000  0.1576550000000 1.0   0.03
S      3 -0.0311450000000  0.1576550000000 -0.1933640000000 1.0   0.03
S      3  0.4688550000000 -0.1576550000000  0.1933640000000 1.0   0.03
Fe     4  0.1993330000000  0.0435280000000  0.2286740000000 1.0   2.48
Fe     4 -0.3006670000000 -0.0435280000000 -0.2286740000000 1.0   2.48
Fe     4 -0.3006670000000 -0.2286740000000 -0.0435280000000 1.0   2.48
Fe     4  0.1993330000000  0.2286740000000  0.0435280000000 1.0   2.48
END
