TITL LFSO-Li4Fe3SO4-200930-211437-3a3024 0.0245 133.845105 -5.44431280E+003 6.51830 7.00724 12 (Cm) n - 1
REM
REM Run started: Wed, 30 Sep 2020 22:35:47 +0100 in /lustre/scratch/uccabz1/launch_tmp/launcher_2020-09-30-20-14-35-764553
REM CASTEP 20.1 from code version af48c487+ pr-geom-scf-spinfix Tue Jun 2 15:39:59 2020 +0100
REM Functional Perdew Burke Ernzerhof Relativity Koelling-Harmon Dispersion off
REM Cut-off 340.0000 eV Grid scale 1.7500 Gmax 16.5316 1/A FBSC none
REM MP grid 4 4 2 Offset 0.000 0.000 0.000 No. kpts 10 Spacing 0.07
REM Total runtime: 4904.88 s
REM Overall efficiency: 63.8571 %
REM
REM
REM
REM compiler GCC version 4.9.2
REM options -cpp -iprefix /lustre/shared/ucl/apps/gcc/4.9.2/bin/../lib/gcc/x86_64-unknown-linux-gnu/4.9.2/ -mtune=corei7 -march=x86-64 -g -Og
REM COMMAND_LINE
REM seed 120466272 -1625766878 -205467497 1435120626 -1009158618 541634834 -1559511825 2040980942 1024310094 -612218509 653852927 2032125920
REM
REM S 3|1.8|5|6|7|30:31:32(qc=5)
REM O 2|1.5|12|13|15|20:21(qc=5)
REM Li 1|1.3|8|9|10|10U:20(qc=5)
REM Fe 3|2.2|2.0|1.0|8|9|10|40:41:32(qc=5)
REM 
CELL 1.54180    3.83474    3.83474   10.13712  107.17066  107.17066   94.44351
LATT -1
SFAC Li O  S  Fe 
Li     1 -0.7001690000000 -0.1969330000000 -0.4115300000000 1.0  -0.07
Li     1 -0.1969330000000 -0.7001690000000 -0.4115300000000 1.0  -0.07
Li     1 -0.1994170000000  0.3804200000000 -0.0280580000000 1.0  -0.03
Li     1  0.3804200000000 -0.1994170000000 -0.0280580000000 1.0  -0.03
O      2 -0.2793640000000  0.2114600000000  0.1264160000000 1.0   0.13
O      2  0.2114600000000 -0.2793640000000  0.1264160000000 1.0   0.13
O      2 -0.0331130000000 -0.5327880000000 -0.2056460000000 1.0   0.17
O      2 -0.5327880000000 -0.0331130000000 -0.2056460000000 1.0   0.17
S      3  0.1799050000000  0.1799050000000  0.4204000000000 1.0   0.05
Fe     4  0.5549890000000  0.1174300000000  0.2660360000000 1.0   1.89
Fe     4  0.1174300000000  0.5549890000000  0.2660360000000 1.0   1.89
Fe     4 -0.0420290000000 -0.0420290000000 -0.2183930000000 1.0   2.30
END
