TITL LFSO-Li3Fe3S5O-200928-195745-043eef -0.2547 486.872089 -1.02931835E+004 -18.0018 18.9863 24 (Pc) n - 1
REM
REM Run started: Wed, 30 Sep 2020 09:07:38 +0100 in /lustre/scratch/uccabz1/launch_tmp/launcher_2020-09-30-07-19-26-439303
REM CASTEP 20.1 from code version af48c487+ pr-geom-scf-spinfix Tue Jun 2 15:39:59 2020 +0100
REM Functional Perdew Burke Ernzerhof Relativity Koelling-Harmon Dispersion off
REM Cut-off 340.0000 eV Grid scale 1.7500 Gmax 16.5316 1/A FBSC none
REM MP grid 3 2 2 Offset 0.000 0.000 0.000 No. kpts 4 Spacing 0.07
REM Total runtime: 64887.8 s
REM Overall efficiency: 98.7273 %
REM
REM
REM
REM compiler GCC version 4.9.2
REM options -cpp -iprefix /scratch/UCL/applications/gcc/4.9.2/bin/../lib/gcc/x86_64-unknown-linux-gnu/4.9.2/ -mtune=corei7 -march=x86-64 -g -O2
REM COMMAND_LINE
REM seed -1113269981 -1320023593 463487970 1635444445 649476829 -1193443063 1284796724 1717384225 265563048 -1567876891 -1946832969 725108068
REM
REM S 3|1.8|5|6|7|30:31:32(qc=5)
REM O 2|1.5|12|13|15|20:21(qc=5)
REM Li 1|1.3|8|9|10|10U:20(qc=5)
REM Fe 3|2.2|2.0|1.0|8|9|10|40:41:32(qc=5)
REM 
CELL 1.54180    5.74559    7.48192   11.32583   90.21665   90.00000   90.00000
LATT -1
SFAC Li O  S  Fe 
Li     1  0.5093330000000  0.2596110000000 -0.3783120000000 1.0   0.02
Li     1 -0.5093330000000  0.2596110000000  0.1216880000000 1.0   0.02
Li     1  0.3278870000000 -0.4871510000000 -0.5265620000000 1.0   0.00
Li     1 -0.3278870000000 -0.4871510000000 -0.0265620000000 1.0   0.00
Li     1  0.3143030000000 -0.2129050000000 -0.2727220000000 1.0  -0.03
Li     1 -0.3143030000000 -0.2129050000000  0.2272780000000 1.0  -0.03
O      2 -0.2312700000000  0.2975790000000 -0.4724440000000 1.0  -0.31
O      2  0.2312700000000  0.2975790000000  0.0275560000000 1.0  -0.31
S      3  0.3134400000000 -0.3198670000000 -0.0680200000000 1.0  -0.08
S      3 -0.3134400000000 -0.3198670000000  0.4319800000000 1.0  -0.08
S      3  0.3049940000000  0.2750970000000  0.3189240000000 1.0   0.01
S      3 -0.3049940000000  0.2750970000000 -0.1810760000000 1.0   0.01
S      3  0.2275840000000 -0.5223050000000 -0.3198160000000 1.0  -0.22
S      3 -0.2275840000000 -0.5223050000000  0.1801840000000 1.0  -0.22
S      3 -0.0348850000000  0.1228080000000  0.3307940000000 1.0   0.13
S      3  0.0348850000000  0.1228080000000 -0.1692060000000 1.0   0.13
S      3 -0.1940420000000  0.0052500000000  0.0851740000000 1.0  -0.15
S      3  0.1940420000000  0.0052500000000 -0.4148260000000 1.0  -0.15
Fe     4 -0.0328100000000  0.2449290000000 -0.3465460000000 1.0  -2.91
Fe     4  0.0328100000000  0.2449290000000  0.1534540000000 1.0  -2.91
Fe     4 -0.0795500000000 -0.0868300000000 -0.5386300000000 1.0  -2.98
Fe     4  0.0795500000000 -0.0868300000000 -0.0386300000000 1.0  -2.98
Fe     4  0.2058250000000  0.3874840000000 -0.1238520000000 1.0  -2.49
Fe     4 -0.2058250000000  0.3874840000000  0.3761480000000 1.0  -2.49
END
