TITL LFSO-Li2Fe3S2O2-200921-010838-0c5da3 -0.5057 292.994359 -8.94778581E+003 -20.0058 20.2393 18 (P2/c) n - 1
REM
REM Run started: Mon, 21 Sep 2020 09:00:16 +0100 in /lustre/scratch/uccabz1/launch_tmp/launcher_2020-09-21-07-30-42-084159
REM CASTEP 20.1 from code version af48c487+ pr-geom-scf-spinfix Tue Jun 2 15:39:59 2020 +0100
REM Functional Perdew Burke Ernzerhof Relativity Koelling-Harmon Dispersion off
REM Cut-off 340.0000 eV Grid scale 1.7500 Gmax 16.5316 1/A FBSC none
REM MP grid 2 3 3 Offset 0.000 0.000 0.000 No. kpts 5 Spacing 0.07
REM Total runtime: 27200.4 s
REM Overall efficiency: 75.1 %
REM
REM
REM
REM compiler GCC version 4.9.2
REM options -cpp -iprefix /lustre/shared/ucl/apps/gcc/4.9.2/bin/../lib/gcc/x86_64-unknown-linux-gnu/4.9.2/ -mtune=corei7 -march=x86-64 -g -Og
REM COMMAND_LINE
REM seed -1642830365 285111011 2098351520 2014908093 2012441058 1769314415 370961450 -862156823 1038212432 -519214015 459403197 261304301
REM
REM S 3|1.8|5|6|7|30:31:32(qc=5)
REM O 2|1.5|12|13|15|20:21(qc=5)
REM Li 1|1.3|8|9|10|10U:20(qc=5)
REM Fe 3|2.2|2.0|1.0|8|9|10|40:41:32(qc=5)
REM 
CELL 1.54180    7.57260    7.48619    5.84246  117.79493   90.00000   90.00000
LATT -1
SFAC Li O  S  Fe 
Li     1 -0.3357050000000  0.3417780000000 -0.1483230000000 1.0   0.04
Li     1 -0.3357050000000 -0.3417780000000 -0.3516770000000 1.0   0.04
Li     1  0.3357050000000 -0.3417780000000  0.1483230000000 1.0   0.04
Li     1  0.3357050000000  0.3417780000000  0.3516770000000 1.0   0.04
O      2  0.1134350000000  0.3356210000000  0.4669050000000 1.0  -0.38
O      2  0.1134350000000 -0.3356210000000  0.0330950000000 1.0  -0.38
O      2 -0.1134350000000 -0.3356210000000 -0.4669050000000 1.0  -0.38
O      2 -0.1134350000000  0.3356210000000 -0.0330950000000 1.0  -0.38
S      3  0.3753630000000  0.2320370000000 -0.1163350000000 1.0  -0.06
S      3  0.3753630000000 -0.2320370000000 -0.3836650000000 1.0  -0.06
S      3 -0.3753630000000 -0.2320370000000  0.1163350000000 1.0  -0.06
S      3 -0.3753630000000  0.2320370000000  0.3836650000000 1.0  -0.06
Fe     4  0.1050220000000 -0.3465740000000 -0.3073650000000 1.0  -3.59
Fe     4  0.1050220000000  0.3465740000000 -0.1926350000000 1.0  -3.59
Fe     4 -0.1050220000000  0.3465740000000  0.3073650000000 1.0  -3.59
Fe     4 -0.1050220000000 -0.3465740000000  0.1926350000000 1.0  -3.59
Fe     4  0.5000000000000 -0.0000000000000 -0.0000000000000 1.0  -2.02
Fe     4 -0.5000000000000 -0.0000000000000  0.5000000000000 1.0  -2.02
END
