TITL LFSO-Li2Fe2S3O-200913-021150-39ddea 0.0080 290.691822 -6.94800415E+003 0.909699E-02 0.384157E-01 16 (C2) n - 1
REM
REM Run started: Sun, 13 Sep 2020 23:32:33 +0100 in /lustre/scratch/uccabz1/launch_tmp/launcher_2020-09-13-01-11-49-002440
REM CASTEP 20.1 from code version af48c487+ pr-geom-scf-spinfix Tue Jun 2 15:39:59 2020 +0100
REM Functional Perdew Burke Ernzerhof Relativity Koelling-Harmon Dispersion off
REM Cut-off 340.0000 eV Grid scale 1.7500 Gmax 16.5316 1/A FBSC none
REM MP grid 4 3 2 Offset 0.000 0.000 0.000 No. kpts 12 Spacing 0.07
REM Total runtime: 82355.9 s
REM Overall efficiency: 98.3333 %
REM
REM
REM
REM compiler GCC version 4.9.2
REM options -cpp -iprefix /lustre/shared/ucl/apps/gcc/4.9.2/bin/../lib/gcc/x86_64-unknown-linux-gnu/4.9.2/ -mtune=corei7 -march=x86-64 -g -Og
REM COMMAND_LINE
REM seed 971751858 -1510659241 -2139322562 -1288518163 -1679729878 1494224465 347725892 -1822968955 -1349207099 384547251 -25999408 458929423
REM
REM S 3|1.8|5|6|7|30:31:32(qc=5)
REM O 2|1.5|12|13|15|20:21(qc=5)
REM Li 1|1.3|8|9|10|10U:20(qc=5)
REM Fe 3|2.2|2.0|1.0|8|9|10|40:41:32(qc=5)
REM 
CELL 1.54180    4.90677    6.25211   10.55697   94.91766  102.61837   66.89553
LATT -1
SFAC Li O  S  Fe 
Li     1 -0.4679340000000 -0.0259570000000 -0.1788210000000 1.0   0.00
Li     1 -0.5061090000000 -0.0259570000000  0.1788210000000 1.0   0.00
Li     1 -0.2798250000000  0.0598320000000 -0.4202000000000 1.0  -0.00
Li     1  0.2199930000000  0.0598320000000  0.4202000000000 1.0  -0.00
O      2  0.5628160000000 -0.1605640000000 -0.3551130000000 1.0   0.00
O      2 -0.4022520000000 -0.1605640000000  0.3551130000000 1.0   0.00
S      3 -0.3553680000000  0.3033960000000 -0.0142640000000 1.0  -0.00
S      3  0.0519720000000  0.3033960000000  0.0142640000000 1.0  -0.00
S      3 -0.1719130000000 -0.2377570000000  0.0244330000000 1.0  -0.00
S      3  0.4096700000000 -0.2377570000000 -0.0244330000000 1.0  -0.00
S      3  0.3195640000000 -0.6185090000000 -0.3207590000000 1.0  -0.00
S      3  0.2989450000000 -0.6185090000000  0.3207590000000 1.0  -0.00
Fe     4 -0.1265450000000 -0.3977580000000 -0.4055720000000 1.0   0.01
Fe     4  0.5243030000000 -0.3977580000000  0.4055720000000 1.0   0.01
Fe     4 -0.0014460000000 -0.3262370000000  0.4092400000000 1.0   0.01
Fe     4  0.3276830000000 -0.3262370000000 -0.4092400000000 1.0   0.01
END
