TITL LFSO-Li2Fe4S3O2-200912-045749-696f88 0.0613 465.245606 -1.12781956E+004 23.7739 24.6108 22 (Ama2) n - 1
REM
REM Run started: Sat, 12 Sep 2020 11:47:11 +0100 in /lustre/scratch/uccabz1/launch_tmp/launcher_2020-09-12-03-57-47-308335
REM CASTEP 20.1 from code version af48c487+ pr-geom-scf-spinfix Tue Jun 2 15:39:59 2020 +0100
REM Functional Perdew Burke Ernzerhof Relativity Koelling-Harmon Dispersion off
REM Cut-off 340.0000 eV Grid scale 1.7500 Gmax 16.5316 1/A FBSC none
REM MP grid 2 2 2 Offset 0.000 0.000 0.000 No. kpts 2 Spacing 0.07
REM Total runtime: 26036.4 s
REM Overall efficiency: 96.5 %
REM
REM
REM
REM compiler GCC version 4.9.2
REM options -cpp -iprefix /lustre/shared/ucl/apps/gcc/4.9.2/bin/../lib/gcc/x86_64-unknown-linux-gnu/4.9.2/ -mtune=corei7 -march=x86-64 -g -Og
REM COMMAND_LINE
REM seed 569379197 1472013061 970054520 1125988700 1022522346 -1340957425 109713508 -48491170 1378678377 732848914 1709633812 70452094
REM
REM S 3|1.8|5|6|7|30:31:32(qc=5)
REM O 2|1.5|12|13|15|20:21(qc=5)
REM Li 1|1.3|8|9|10|10U:20(qc=5)
REM Fe 3|2.2|2.0|1.0|8|9|10|40:41:32(qc=5)
REM 
CELL 1.54180    7.18850    7.18850    9.00894   90.00000   90.00000   92.01523
LATT -1
SFAC Li O  S  Fe 
Li     1 -0.0899860000000 -0.2641510000000  0.4797650000000 1.0  -0.03
Li     1  0.2641510000000  0.0899860000000 -0.4797650000000 1.0  -0.03
Li     1  0.2641510000000  0.0899860000000 -0.0202350000000 1.0  -0.03
Li     1 -0.0899860000000 -0.2641510000000  0.0202350000000 1.0  -0.03
O      2  0.5158850000000  0.0522650000000 -0.4615470000000 1.0   0.25
O      2 -0.0522650000000 -0.5158850000000  0.4615470000000 1.0   0.25
O      2 -0.0522650000000 -0.5158850000000  0.0384530000000 1.0   0.25
O      2  0.5158850000000  0.0522650000000 -0.0384530000000 1.0   0.25
S      3  0.4058800000000  0.4491430000000  0.4163010000000 1.0   0.04
S      3 -0.4491430000000 -0.4058800000000 -0.4163010000000 1.0   0.04
S      3 -0.4491430000000 -0.4058800000000 -0.0836990000000 1.0   0.04
S      3  0.4058800000000  0.4491430000000  0.0836990000000 1.0   0.04
S      3  0.0508140000000  0.0831710000000 -0.2500000000000 1.0   0.13
S      3 -0.0831710000000 -0.0508140000000  0.2500000000000 1.0   0.13
Fe     4 -0.0765970000000  0.2722910000000 -0.4209540000000 1.0   3.03
Fe     4 -0.2722910000000  0.0765970000000  0.4209540000000 1.0   3.03
Fe     4 -0.2722910000000  0.0765970000000  0.0790460000000 1.0   3.03
Fe     4 -0.0765970000000  0.2722910000000 -0.0790460000000 1.0   3.03
Fe     4 -0.4204790000000  0.2837890000000 -0.1082790000000 1.0   2.59
Fe     4 -0.2837890000000  0.4204790000000  0.1082790000000 1.0   2.59
Fe     4 -0.2837890000000  0.4204790000000  0.3917210000000 1.0   2.59
Fe     4 -0.4204790000000  0.2837890000000 -0.3917210000000 1.0   2.59
END
