TITL LFSO-Li4Fe3SO4-200928-142754-deb1bd 0.2897 338.627540 -1.08914448E+004 16.0301 16.7710 24 (Cc) n - 1
REM
REM Run started: Tue, 29 Sep 2020 14:57:24 +0100 in /lustre/scratch/uccabz1/launch_tmp/launcher_2020-09-28-13-27-52-891161
REM CASTEP 20.1 from code version af48c487+ pr-geom-scf-spinfix Tue Jun 2 15:39:59 2020 +0100
REM Functional Perdew Burke Ernzerhof Relativity Koelling-Harmon Dispersion off
REM Cut-off 340.0000 eV Grid scale 1.7500 Gmax 16.5316 1/A FBSC none
REM MP grid 3 4 2 Offset 0.000 0.000 0.000 No. kpts 12 Spacing 0.07
REM Total runtime: 98023.4 s
REM Overall efficiency: 98.6667 %
REM
REM
REM
REM compiler GCC version 4.9.2
REM options -cpp -iprefix /lustre/shared/ucl/apps/gcc/4.9.2/bin/../lib/gcc/x86_64-unknown-linux-gnu/4.9.2/ -mtune=corei7 -march=x86-64 -g -Og
REM COMMAND_LINE
REM seed -1985807629 -2020760028 -317518890 383454184 -690992535 -1951436459 2036133268 -1270707076 1152857638 -2084697339 2044895932 938346114
REM
REM S 3|1.8|5|6|7|30:31:32(qc=5)
REM O 2|1.5|12|13|15|20:21(qc=5)
REM Li 1|1.3|8|9|10|10U:20(qc=5)
REM Fe 3|2.2|2.0|1.0|8|9|10|40:41:32(qc=5)
REM 
CELL 1.54180    6.05884    6.05884   11.99458  107.95675   84.41885  125.60556
LATT -1
SFAC Li O  S  Fe 
Li     1  0.1396230000000  0.4092570000000 -0.0851500000000 1.0   0.01
Li     1  0.0055930000000 -0.2247730000000  0.4148500000000 1.0   0.01
Li     1 -0.3365330000000 -0.0416600000000 -0.0849650000000 1.0  -0.02
Li     1 -0.5433050000000  0.2515690000000  0.4150350000000 1.0  -0.02
Li     1 -0.2344250000000  0.0057590000000 -0.5258850000000 1.0  -0.00
Li     1 -0.0316440000000 -0.2914600000000 -0.0258850000000 1.0  -0.00
Li     1  0.3037070000000  0.5540910000000  0.5081570000000 1.0  -0.01
Li     1 -0.5459340000000  0.2044500000000  0.0081570000000 1.0  -0.01
O      2  0.0955540000000  0.1275560000000  0.0569480000000 1.0   0.13
O      2  0.4293920000000 -0.0386050000000 -0.4430520000000 1.0   0.13
O      2  0.1478700000000  0.1928190000000 -0.4751160000000 1.0   0.24
O      2 -0.1679350000000 -0.6229860000000  0.0248840000000 1.0   0.24
O      2  0.1905570000000 -0.0615900000000  0.2884970000000 1.0   0.14
O      2 -0.1499130000000  0.0979410000000 -0.2115030000000 1.0   0.14
O      2  0.3438950000000 -0.1857870000000 -0.0081530000000 1.0   0.19
O      2 -0.3223670000000 -0.3520490000000  0.4918470000000 1.0   0.19
S      3 -0.1163680000000  0.2480620000000  0.3113510000000 1.0   0.11
S      3  0.5632890000000  0.4277190000000 -0.1886490000000 1.0   0.11
Fe     4  0.3239090000000 -0.1341210000000  0.1482250000000 1.0   2.98
Fe     4 -0.2176540000000 -0.1756840000000 -0.3517750000000 1.0   2.98
Fe     4  0.1000190000000  0.0770850000000  0.1987690000000 1.0   1.65
Fe     4 -0.3783160000000  0.0987500000000 -0.3012310000000 1.0   1.65
Fe     4 -0.0571300000000  0.3118430000000  0.1354890000000 1.0   2.59
Fe     4  0.3236460000000  0.1926200000000 -0.3645110000000 1.0   2.59
END
