TITL LFSO-Li2Fe3SO3-200912-085925-eb3b84 0.0152 131.359261 -4.60742488E+003 11.4595 11.6275 9 (P3) n - 1
REM
REM Run started: Sat, 12 Sep 2020 09:28:18 +0100 in /lustre/scratch/uccabz1/launch_tmp/launcher_2020-09-12-07-59-23-889260
REM CASTEP 20.1 from code version af48c487+ pr-geom-scf-spinfix Tue Jun 2 15:39:59 2020 +0100
REM Functional Perdew Burke Ernzerhof Relativity Koelling-Harmon Dispersion off
REM Cut-off 340.0000 eV Grid scale 1.7500 Gmax 16.5316 1/A FBSC none
REM MP grid 3 4 4 Offset 0.000 0.000 0.000 No. kpts 24 Spacing 0.07
REM Total runtime: 1881.75 s
REM Overall efficiency: 89 %
REM
REM
REM
REM compiler GCC version 4.9.2
REM options -cpp -iprefix /lustre/shared/ucl/apps/gcc/4.9.2/bin/../lib/gcc/x86_64-unknown-linux-gnu/4.9.2/ -mtune=corei7 -march=x86-64 -g -Og
REM COMMAND_LINE
REM seed -1935449584 938978440 -311882562 -780643529 -1961010183 1174959080 -1515193750 1514233024 1744226921 2099250460 -817940594 1097507512
REM
REM S 3|1.8|5|6|7|30:31:32(qc=5)
REM O 2|1.5|12|13|15|20:21(qc=5)
REM Li 1|1.3|8|9|10|10U:20(qc=5)
REM Fe 3|2.2|2.0|1.0|8|9|10|40:41:32(qc=5)
REM 
CELL 1.54180    6.02390    5.01795    5.01795  120.00000   90.00000   90.00000
LATT -1
SFAC Li O  S  Fe 
Li     1  0.1798420000000  0.3333330000000 -0.3333330000000 1.0   0.04
Li     1  0.2582170000000 -0.3333330000000  0.3333330000000 1.0  -0.05
O      2  0.3980570000000 -0.3375780000000 -0.3278930000000 1.0   0.41
O      2  0.3980570000000  0.3278930000000 -0.0096850000000 1.0   0.41
O      2  0.3980570000000  0.0096850000000  0.3375780000000 1.0   0.41
S      3 -0.1431110000000 -0.3333330000000  0.3333330000000 1.0   0.15
Fe     4 -0.4123810000000 -0.3658990000000 -0.0254630000000 1.0   3.38
Fe     4 -0.4123810000000  0.0254630000000 -0.3404360000000 1.0   3.38
Fe     4 -0.4123810000000  0.3404360000000  0.3658990000000 1.0   3.38
END
