TITL LFSO-Li4Fe2SO4-200910-142808-ed4cda -0.0025 165.666287 -4.57932170E+003 -0.317296 1.06104 11 (P3) n - 1
REM
REM Run started: Thu, 10 Sep 2020 19:20:37 +0100 in /lustre/scratch/uccabz1/launch_tmp/launcher_2020-09-10-13-28-06-942054
REM CASTEP 20.1 from code version af48c487+ pr-geom-scf-spinfix Tue Jun 2 15:39:59 2020 +0100
REM Functional Perdew Burke Ernzerhof Relativity Koelling-Harmon Dispersion off
REM Cut-off 340.0000 eV Grid scale 1.7500 Gmax 16.5316 1/A FBSC none
REM MP grid 4 4 3 Offset 0.000 0.000 0.000 No. kpts 24 Spacing 0.07
REM Total runtime: 21436 s
REM Overall efficiency: 97.7143 %
REM
REM
REM
REM compiler GCC version 4.9.2
REM options -cpp -iprefix /lustre/shared/ucl/apps/gcc/4.9.2/bin/../lib/gcc/x86_64-unknown-linux-gnu/4.9.2/ -mtune=corei7 -march=x86-64 -g -Og
REM COMMAND_LINE
REM seed -95448146 -566787118 -171242923 712432278 -396838787 1517655766 -643549418 -1857588024 715785158 528163136 -179790522 -709832848
REM
REM S 3|1.8|5|6|7|30:31:32(qc=5)
REM O 2|1.5|12|13|15|20:21(qc=5)
REM Li 1|1.3|8|9|10|10U:20(qc=5)
REM Fe 3|2.2|2.0|1.0|8|9|10|40:41:32(qc=5)
REM 
CELL 1.54180    5.36860    5.36860    6.63716   90.00000   90.00000  120.00000
LATT -1
SFAC Li O  S  Fe 
Li     1 -0.3584620000000 -0.1970520000000  0.0648100000000 1.0   0.01
Li     1  0.1970520000000 -0.1614100000000  0.0648100000000 1.0   0.01
Li     1  0.1614100000000  0.3584620000000  0.0648100000000 1.0   0.01
Li     1 -0.3333330000000  0.3333330000000  0.7123450000000 1.0  -0.00
O      2  0.4225190000000  0.4209790000000 -0.4981200000000 1.0  -0.02
O      2 -0.4209790000000  0.0015400000000 -0.4981200000000 1.0  -0.02
O      2 -0.0015400000000 -0.4225190000000 -0.4981200000000 1.0  -0.02
O      2  0.3333330000000 -0.3333330000000 -0.1036130000000 1.0  -0.03
S      3 -0.3333330000000  0.3333330000000  0.0521360000000 1.0   0.01
Fe     4  0.3333330000000 -0.3333330000000  0.6134590000000 1.0  -0.32
Fe     4 -0.3333330000000  0.3333330000000  0.3810150000000 1.0   0.05
END
