TITL LFSO-Li2Fe2SO3-200913-112159-f64aff 0.0246 300.952731 -1.12333284E+004 -16.9717 17.4781 24 (P32) n - 1
REM
REM Run started: Sun, 13 Sep 2020 23:05:37 +0100 in /lustre/scratch/uccabz1/launch_tmp/launcher_2020-09-13-10-21-57-157100
REM CASTEP 20.1 from code version af48c487+ pr-geom-scf-spinfix Tue Jun 2 15:39:59 2020 +0100
REM Functional Perdew Burke Ernzerhof Relativity Koelling-Harmon Dispersion off
REM Cut-off 340.0000 eV Grid scale 1.7500 Gmax 16.5316 1/A FBSC none
REM MP grid 2 3 3 Offset 0.000 0.000 0.000 No. kpts 5 Spacing 0.07
REM Total runtime: 42376.6 s
REM Overall efficiency: 85.2 %
REM
REM
REM
REM compiler GCC version 4.9.2
REM options -cpp -iprefix /lustre/shared/ucl/apps/gcc/4.9.2/bin/../lib/gcc/x86_64-unknown-linux-gnu/4.9.2/ -mtune=corei7 -march=x86-64 -g -Og
REM COMMAND_LINE
REM seed 54856278 -1360091615 -2108029709 1622870760 1038359798 1965329991 -499812871 -1332175910 -1986612500 1053798893 1045201278 735446877
REM
REM S 3|1.8|5|6|7|30:31:32(qc=5)
REM O 2|1.5|12|13|15|20:21(qc=5)
REM Li 1|1.3|8|9|10|10U:20(qc=5)
REM Fe 3|2.2|2.0|1.0|8|9|10|40:41:32(qc=5)
REM 
CELL 1.54180    7.69170    6.72160    6.72160  120.00000   90.00000   90.00000
LATT -1
SFAC Li O  S  Fe 
Li     1 -0.4208680000000  0.5010770000000  0.3023040000000 1.0  -0.01
Li     1 -0.0875340000000 -0.1987730000000 -0.5010770000000 1.0  -0.01
Li     1  0.2457990000000 -0.3023040000000  0.1987730000000 1.0  -0.01
Li     1  0.5565810000000  0.0062150000000  0.3914730000000 1.0   0.00
Li     1 -0.1100860000000  0.3852580000000 -0.0062150000000 1.0   0.00
Li     1  0.2232480000000 -0.3914730000000 -0.3852580000000 1.0   0.00
O      2 -0.0931950000000  0.1970000000000 -0.3628070000000 1.0  -0.23
O      2  0.2401380000000  0.4401940000000 -0.1970000000000 1.0  -0.23
O      2 -0.4265280000000  0.3628070000000 -0.4401940000000 1.0  -0.23
O      2  0.1023450000000  0.1830250000000 -0.0436650000000 1.0  -0.11
O      2  0.4356790000000 -0.2266890000000 -0.1830250000000 1.0  -0.11
O      2 -0.2309880000000  0.0436650000000  0.2266890000000 1.0  -0.11
O      2  0.4907050000000 -0.3194540000000  0.1684010000000 1.0  -0.29
O      2 -0.1759620000000  0.4878550000000  0.3194540000000 1.0  -0.29
O      2  0.1573720000000 -0.1684010000000 -0.4878550000000 1.0  -0.29
S      3  0.2238920000000  0.1441910000000  0.3117020000000 1.0  -0.06
S      3 -0.4427750000000  0.1675110000000 -0.1441910000000 1.0  -0.06
S      3 -0.1094410000000 -0.3117020000000 -0.1675110000000 1.0  -0.06
Fe     4  0.4871910000000 -0.4907480000000 -0.1432620000000 1.0  -2.77
Fe     4 -0.1794750000000  0.3474860000000  0.4907480000000 1.0  -2.77
Fe     4  0.1538580000000  0.1432620000000 -0.3474860000000 1.0  -2.77
Fe     4  0.3133320000000  0.0511030000000 -0.0457850000000 1.0  -2.20
Fe     4 -0.3533340000000 -0.0968880000000 -0.0511030000000 1.0  -2.20
Fe     4 -0.0200010000000  0.0457850000000  0.0968880000000 1.0  -2.20
END
