TITL LFSO-LiFe3S3O2-200909-140548-d25ebb 0.0046 343.499264 -9.15492555E+003 -5.01394 18.1433 18 (I222) n - 1
REM
REM Run started: Fri, 11 Sep 2020 04:18:21 +0100 in /lustre/scratch/uccabz1/launch_tmp/launcher_2020-09-09-13-05-45-681257
REM CASTEP 20.1 from code version af48c487+ pr-geom-scf-spinfix Tue Jun 2 15:39:59 2020 +0100
REM Functional Perdew Burke Ernzerhof Relativity Koelling-Harmon Dispersion off
REM Cut-off 340.0000 eV Grid scale 1.7500 Gmax 16.5316 1/A FBSC none
REM MP grid 3 3 3 Offset 0.000 0.000 0.000 No. kpts 8 Spacing 0.07
REM Total runtime: 139382 s
REM Overall efficiency: 98.75 %
REM
REM
REM
REM compiler GCC version 4.9.2
REM options -cpp -iprefix /lustre/shared/ucl/apps/gcc/4.9.2/bin/../lib/gcc/x86_64-unknown-linux-gnu/4.9.2/ -mtune=corei7 -march=x86-64 -g -Og
REM COMMAND_LINE
REM seed -1467955313 490007906 -1627651311 -1479606925 339299155 -1900680604 1506281343 1096282677 453293138 527680829 -938158859 -1285864561
REM
REM S 3|1.8|5|6|7|30:31:32(qc=5)
REM O 2|1.5|12|13|15|20:21(qc=5)
REM Li 1|1.3|8|9|10|10U:20(qc=5)
REM Fe 3|2.2|2.0|1.0|8|9|10|40:41:32(qc=5)
REM 
CELL 1.54180    7.96102    7.68800    7.68800   71.27716   58.81813   58.81813
LATT -1
SFAC Li O  S  Fe 
Li     1 -0.3117610000000  0.0000000000000  0.0000000000000 1.0  -0.03
Li     1  0.3117610000000  0.0000000000000  0.0000000000000 1.0  -0.03
O      2  0.0735360000000 -0.0419860000000  0.2033030000000 1.0   0.02
O      2 -0.2348530000000  0.2033030000000 -0.0419860000000 1.0   0.02
O      2  0.2348530000000  0.0419860000000 -0.2033030000000 1.0   0.02
O      2 -0.0735360000000 -0.2033030000000  0.0419860000000 1.0   0.02
S      3  0.4275100000000 -0.4610280000000 -0.1426490000000 1.0   0.09
S      3  0.1761660000000 -0.1426490000000 -0.4610280000000 1.0   0.09
S      3 -0.1761660000000  0.4610280000000  0.1426490000000 1.0   0.09
S      3 -0.4275100000000  0.1426490000000  0.4610280000000 1.0   0.09
S      3  0.2259070000000  0.2740930000000  0.2740930000000 1.0  -0.34
S      3 -0.2259070000000 -0.2740930000000 -0.2740930000000 1.0  -0.34
Fe     4  0.2885160000000  0.0760720000000 -0.4660930000000 1.0  -2.66
Fe     4  0.1015050000000 -0.4660930000000  0.0760720000000 1.0  -2.66
Fe     4 -0.1015050000000 -0.0760720000000  0.4660930000000 1.0  -2.66
Fe     4 -0.2885160000000  0.4660930000000 -0.0760720000000 1.0  -2.66
Fe     4  0.1625810000000 -0.1625810000000 -0.1625810000000 1.0   2.91
Fe     4 -0.1625810000000  0.1625810000000  0.1625810000000 1.0   2.91
END
