TITL LFSO-Li2FeSO-200912-033957-1476c6 -0.0362 139.515205 -4.00676683E+003 7.99438 8.02841 10 (R3) n - 1
REM
REM Run started: Sat, 12 Sep 2020 06:51:22 +0100 in /lustre/scratch/uccabz1/launch_tmp/launcher_2020-09-12-02-39-55-482004
REM CASTEP 20.1 from code version af48c487+ pr-geom-scf-spinfix Tue Jun 2 15:39:59 2020 +0100
REM Functional Perdew Burke Ernzerhof Relativity Koelling-Harmon Dispersion off
REM Cut-off 340.0000 eV Grid scale 1.7500 Gmax 16.5316 1/A FBSC none
REM MP grid 4 4 3 Offset 0.000 0.000 0.000 No. kpts 24 Spacing 0.07
REM Total runtime: 12184.2 s
REM Overall efficiency: 97.2857 %
REM
REM
REM
REM compiler GCC version 4.9.2
REM options -cpp -iprefix /lustre/shared/ucl/apps/gcc/4.9.2/bin/../lib/gcc/x86_64-unknown-linux-gnu/4.9.2/ -mtune=corei7 -march=x86-64 -g -Og
REM COMMAND_LINE
REM seed -521928172 1855808349 -1188367321 1563223875 -868531112 -285839152 -493948616 -1486171846 1981693570 405190774 1364390883 1594872741
REM
REM S 3|1.8|5|6|7|30:31:32(qc=5)
REM O 2|1.5|12|13|15|20:21(qc=5)
REM Li 1|1.3|8|9|10|10U:20(qc=5)
REM Fe 3|2.2|2.0|1.0|8|9|10|40:41:32(qc=5)
REM 
CELL 1.54180    4.94285    4.94285    7.18486   69.88067   69.88067   60.00000
LATT -1
SFAC Li O  S  Fe 
Li     1 -0.0438860000000  0.1955510000000  0.2281310000000 1.0  -0.04
Li     1  0.1955510000000 -0.3797960000000  0.2281310000000 1.0  -0.04
Li     1 -0.3797960000000 -0.0438860000000  0.2281310000000 1.0  -0.04
Li     1  0.3612510000000  0.3612510000000 -1.0837530000000 1.0  -0.08
O      2  0.2752000000000  0.2752000000000 -0.8256000000000 1.0   0.17
O      2 -0.4072910000000 -0.4072910000000  1.2218720000000 1.0   0.34
S      3  0.0260150000000  0.0260150000000 -0.0780450000000 1.0   0.28
S      3 -0.1875190000000 -0.1875190000000  0.5625560000000 1.0   0.12
Fe     4  0.4974810000000  0.4974810000000 -1.4924420000000 1.0   3.65
Fe     4 -0.3094750000000 -0.3094750000000  0.9284240000000 1.0   3.64
END
