TITL LFSO-Li4Fe2S4O-200910-211349-82cdd8 0.0800 231.856814 -4.17855331E+003 -6.53179 6.69185 11 (P2) n - 1
REM
REM Run started: Fri, 11 Sep 2020 11:53:05 +0100 in /lustre/scratch/uccabz1/launch_tmp/launcher_2020-09-10-20-13-47-521037
REM CASTEP 20.1 from code version af48c487+ pr-geom-scf-spinfix Tue Jun 2 15:39:59 2020 +0100
REM Functional Perdew Burke Ernzerhof Relativity Koelling-Harmon Dispersion off
REM Cut-off 340.0000 eV Grid scale 1.7500 Gmax 16.5316 1/A FBSC none
REM MP grid 5 3 2 Offset 0.000 0.000 0.000 No. kpts 10 Spacing 0.07
REM Total runtime: 57289 s
REM Overall efficiency: 75.4167 %
REM
REM
REM
REM compiler GCC version 4.9.2
REM options -cpp -iprefix /lustre/shared/ucl/apps/gcc/4.9.2/bin/../lib/gcc/x86_64-unknown-linux-gnu/4.9.2/ -mtune=corei7 -march=x86-64 -g -Og
REM COMMAND_LINE
REM seed -1701003076 1889802052 1663813747 446221488 921169492 -940226857 -1236052355 206329518 -584257421 -498365461 1647481515 991819173
REM
REM S 3|1.8|5|6|7|30:31:32(qc=5)
REM O 2|1.5|12|13|15|20:21(qc=5)
REM Li 1|1.3|8|9|10|10U:20(qc=5)
REM Fe 3|2.2|2.0|1.0|8|9|10|40:41:32(qc=5)
REM 
CELL 1.54180    3.93385    6.37124   13.02340   90.00000  134.73912   90.00000
LATT -1
SFAC Li O  S  Fe 
Li     1 -0.0152990000000  0.1772630000000  0.1377740000000 1.0   0.05
Li     1  0.0152990000000  0.1772630000000 -0.1377740000000 1.0   0.05
Li     1  0.5192720000000 -0.1657290000000 -0.3713730000000 1.0  -0.06
Li     1 -0.5192720000000 -0.1657290000000  0.3713730000000 1.0  -0.06
O      2  0.0000000000000 -0.8082620000000  0.0000000000000 1.0  -0.85
S      3 -0.5860050000000  0.4514630000000  0.3523840000000 1.0  -0.08
S      3  0.5860050000000  0.4514630000000 -0.3523840000000 1.0  -0.08
S      3 -0.1806170000000  0.0021530000000  0.3027890000000 1.0  -0.29
S      3  0.1806170000000  0.0021530000000 -0.3027890000000 1.0  -0.29
Fe     4 -0.0677720000000  0.3014100000000 -0.4194740000000 1.0  -2.46
Fe     4  0.0677720000000  0.3014100000000  0.4194740000000 1.0  -2.46
END
