TITL LFSO-Li4Fe3S3O2-200926-145527-f95d3c -0.0309 525.791234 -1.03504775E+004 14.7506 15.4931 24 (P4) n - 1
REM
REM Run started: Sun, 27 Sep 2020 13:26:15 +0100 in /lustre/scratch/uccabz1/launch_tmp/launcher_2020-09-26-13-55-25-435095
REM CASTEP 20.1 from code version af48c487+ pr-geom-scf-spinfix Tue Jun 2 15:39:59 2020 +0100
REM Functional Perdew Burke Ernzerhof Relativity Koelling-Harmon Dispersion off
REM Cut-off 340.0000 eV Grid scale 1.7500 Gmax 16.5316 1/A FBSC none
REM MP grid 4 2 2 Offset 0.000 0.000 0.000 No. kpts 2 Spacing 0.07
REM Total runtime: 82452.3 s
REM Overall efficiency: 74.5 %
REM
REM
REM
REM compiler GCC version 4.9.2
REM options -cpp -iprefix /lustre/shared/ucl/apps/gcc/4.9.2/bin/../lib/gcc/x86_64-unknown-linux-gnu/4.9.2/ -mtune=corei7 -march=x86-64 -g -Og
REM COMMAND_LINE
REM seed 1113168243 62371903 -2016519223 2117618359 -365164027 403403959 1417776234 -160894645 -1727877588 206948547 -452234455 1275528252
REM
REM S 3|1.8|5|6|7|30:31:32(qc=5)
REM O 2|1.5|12|13|15|20:21(qc=5)
REM Li 1|1.3|8|9|10|10U:20(qc=5)
REM Fe 3|2.2|2.0|1.0|8|9|10|40:41:32(qc=5)
REM 
CELL 1.54180    3.84837   11.68876   11.68876   90.00000   90.00000   90.00000
LATT -1
SFAC Li O  S  Fe 
Li     1  0.0038550000000 -0.3538040000000 -0.1956570000000 1.0  -0.02
Li     1  0.0038550000000  0.3538040000000  0.1956570000000 1.0  -0.02
Li     1  0.0038550000000  0.1956570000000 -0.3538040000000 1.0  -0.02
Li     1  0.0038550000000 -0.1956570000000  0.3538040000000 1.0  -0.02
Li     1 -0.3878390000000  0.3426300000000 -0.1801690000000 1.0  -0.01
Li     1 -0.3878390000000 -0.3426300000000  0.1801690000000 1.0  -0.01
Li     1 -0.3878390000000  0.1801690000000  0.3426300000000 1.0  -0.01
Li     1 -0.3878390000000 -0.1801690000000 -0.3426300000000 1.0  -0.01
O      2 -0.4899160000000 -0.3078450000000 -0.2492040000000 1.0   0.21
O      2 -0.4899160000000  0.3078450000000  0.2492040000000 1.0   0.21
O      2 -0.4899160000000  0.2492040000000 -0.3078450000000 1.0   0.21
O      2 -0.4899160000000 -0.2492040000000  0.3078450000000 1.0   0.21
S      3 -0.0020530000000  0.3128960000000  0.4672970000000 1.0   0.12
S      3 -0.0020530000000 -0.3128960000000 -0.4672970000000 1.0   0.12
S      3 -0.0020530000000 -0.4672970000000  0.3128960000000 1.0   0.12
S      3 -0.0020530000000  0.4672970000000 -0.3128960000000 1.0   0.12
S      3 -0.1867750000000  0.5000000000000  0.0000000000000 1.0  -0.08
S      3 -0.1867750000000  0.0000000000000 -0.5000000000000 1.0  -0.08
Fe     4  0.4820610000000  0.4096860000000  0.3690410000000 1.0   2.79
Fe     4  0.4820610000000 -0.4096860000000 -0.3690410000000 1.0   2.79
Fe     4  0.4820610000000 -0.3690410000000  0.4096860000000 1.0   2.79
Fe     4  0.4820610000000  0.3690410000000 -0.4096860000000 1.0   2.79
Fe     4  0.3137240000000 -0.5000000000000  0.0000000000000 1.0   1.28
Fe     4  0.3137240000000  0.0000000000000  0.5000000000000 1.0   1.28
END
