TITL LFSO-Li3Fe3S2O4-200928-163320-c84521 0.0526 271.970083 -5.55052317E+003 -8.49258 8.88810 12 (P-1) n - 1
REM
REM Run started: Wed, 30 Sep 2020 01:56:29 +0100 in /lustre/scratch/uccabz1/launch_tmp/launcher_2020-09-30-00-18-32-731078
REM CASTEP 20.1 from code version af48c487+ pr-geom-scf-spinfix Tue Jun 2 15:39:59 2020 +0100
REM Functional Perdew Burke Ernzerhof Relativity Koelling-Harmon Dispersion off
REM Cut-off 340.0000 eV Grid scale 1.7500 Gmax 16.5316 1/A FBSC none
REM MP grid 6 3 1 Offset 0.000 0.000 0.000 No. kpts 9 Spacing 0.07
REM Total runtime: 78082.4 s
REM Overall efficiency: 98 %
REM
REM
REM
REM compiler GCC version 4.9.2
REM options -cpp -iprefix /scratch/UCL/applications/gcc/4.9.2/bin/../lib/gcc/x86_64-unknown-linux-gnu/4.9.2/ -mtune=corei7 -march=x86-64 -g -O2
REM COMMAND_LINE
REM seed -990418094 -459231229 -385501430 1296819935 2079200702 1545019703 125573338 -94023817 821294251 -1557099358 247037418 -1479785495
REM
REM S 3|1.8|5|6|7|30:31:32(qc=5)
REM O 2|1.5|12|13|15|20:21(qc=5)
REM Li 1|1.3|8|9|10|10U:20(qc=5)
REM Fe 3|2.2|2.0|1.0|8|9|10|40:41:32(qc=5)
REM 
CELL 1.54180    2.69971    7.54453   17.71224   53.64890   80.15798   69.56820
LATT -1
SFAC Li O  S  Fe 
Li     1  0.4557460000000  0.1434610000000  0.3669220000000 1.0  -0.01
Li     1 -0.4557460000000 -0.1434610000000 -0.3669220000000 1.0  -0.01
Li     1 -0.5000000000000  0.5000000000000  0.0000000000000 1.0   0.02
O      2 -0.0109640000000  0.3989120000000  0.1018120000000 1.0  -0.17
O      2  0.0109640000000 -0.3989120000000 -0.1018120000000 1.0  -0.17
O      2  0.0441240000000 -0.2413580000000 -0.2758050000000 1.0  -0.16
O      2 -0.0441240000000  0.2413580000000  0.2758050000000 1.0  -0.16
S      3 -0.2522610000000  0.2539280000000 -0.5037650000000 1.0  -0.08
S      3  0.2522610000000 -0.2539280000000  0.5037650000000 1.0  -0.08
Fe     4 -0.4712740000000 -0.3213230000000 -0.1888340000000 1.0  -2.61
Fe     4  0.4712740000000  0.3213230000000  0.1888340000000 1.0  -2.61
Fe     4  0.0000000000000 -0.5000000000000  0.5000000000000 1.0  -2.44
END
