TITL LFSO-Li4Fe3SO4-200928-151341-e17150 -0.0319 166.956106 -5.44562282E+003 11.2206 11.4583 12 (C2) n - 1
REM
REM Run started: Mon, 28 Sep 2020 23:04:33 +0100 in /lustre/scratch/uccabz1/launch_tmp/launcher_2020-09-28-14-13-40-178539
REM CASTEP 20.1 from code version af48c487+ pr-geom-scf-spinfix Tue Jun 2 15:39:59 2020 +0100
REM Functional Perdew Burke Ernzerhof Relativity Koelling-Harmon Dispersion off
REM Cut-off 340.0000 eV Grid scale 1.7500 Gmax 16.5316 1/A FBSC none
REM MP grid 6 3 3 Offset 0.000 0.000 0.000 No. kpts 18 Spacing 0.07
REM Total runtime: 28347.5 s
REM Overall efficiency: 96.8462 %
REM
REM
REM
REM compiler GCC version 4.9.2
REM options -cpp -iprefix /lustre/shared/ucl/apps/gcc/4.9.2/bin/../lib/gcc/x86_64-unknown-linux-gnu/4.9.2/ -mtune=corei7 -march=x86-64 -g -Og
REM COMMAND_LINE
REM seed -1346845976 730294370 931104460 -1918491097 895518280 -2079504274 -1622448785 -948693469 -1810534390 -1916006346 -562577686 -1895506429
REM
REM S 3|1.8|5|6|7|30:31:32(qc=5)
REM O 2|1.5|12|13|15|20:21(qc=5)
REM Li 1|1.3|8|9|10|10U:20(qc=5)
REM Fe 3|2.2|2.0|1.0|8|9|10|40:41:32(qc=5)
REM 
CELL 1.54180    3.08959    9.15837    9.15837   53.80683  122.48358  122.48358
LATT -1
SFAC Li O  S  Fe 
Li     1 -0.2136850000000 -0.0850680000000 -0.2291960000000 1.0  -0.02
Li     1  0.2136850000000  0.2291960000000  0.0850680000000 1.0  -0.02
Li     1  0.0766230000000  0.1335180000000  0.4438830000000 1.0   0.01
Li     1 -0.0766230000000 -0.4438830000000 -0.1335180000000 1.0   0.01
O      2 -0.4465950000000  0.2940490000000 -0.0779140000000 1.0   0.32
O      2  0.4465950000000  0.0779140000000 -0.2940490000000 1.0   0.32
O      2  0.4392380000000 -0.3116870000000 -0.2596460000000 1.0   0.32
O      2 -0.4392380000000  0.2596460000000  0.3116870000000 1.0   0.32
S      3 -0.5000000000000 -0.2458240000000  0.2458240000000 1.0   0.16
Fe     4 -0.0344900000000  0.4567930000000  0.3742380000000 1.0   3.19
Fe     4  0.0344900000000 -0.3742380000000 -0.4567930000000 1.0   3.19
Fe     4  0.5000000000000  0.2699080000000 -0.2699080000000 1.0   3.42
END
