TITL LFSO-Li4Fe3S3O2-200927-082456-173423 0.0773 179.001429 -5.17462334E+003 11.2992 11.4240 12 (P3) n - 1
REM
REM Run started: Sun, 27 Sep 2020 10:36:57 +0100 in /lustre/scratch/uccabz1/launch_tmp/launcher_2020-09-27-07-24-54-488045
REM CASTEP 20.1 from code version af48c487+ pr-geom-scf-spinfix Tue Jun 2 15:39:59 2020 +0100
REM Functional Perdew Burke Ernzerhof Relativity Koelling-Harmon Dispersion off
REM Cut-off 340.0000 eV Grid scale 1.7500 Gmax 16.5316 1/A FBSC none
REM MP grid 5 3 3 Offset 0.000 0.000 0.000 No. kpts 13 Spacing 0.07
REM Total runtime: 8001.11 s
REM Overall efficiency: 93.25 %
REM
REM
REM
REM compiler GCC version 4.9.2
REM options -cpp -iprefix /lustre/shared/ucl/apps/gcc/4.9.2/bin/../lib/gcc/x86_64-unknown-linux-gnu/4.9.2/ -mtune=corei7 -march=x86-64 -g -Og
REM COMMAND_LINE
REM seed -2126259716 1063499269 -1740903670 1268588638 1150768895 921165854 2045578126 -303278272 -2074046153 605797551 -1254372663 1636713966
REM
REM S 3|1.8|5|6|7|30:31:32(qc=5)
REM O 2|1.5|12|13|15|20:21(qc=5)
REM Li 1|1.3|8|9|10|10U:20(qc=5)
REM Fe 3|2.2|2.0|1.0|8|9|10|40:41:32(qc=5)
REM 
CELL 1.54180    3.43425    7.75795    7.75795  120.00000   90.00000   90.00000
LATT -1
SFAC Li O  S  Fe 
Li     1 -0.4784490000000  0.4441620000000 -0.0994960000000 1.0  -0.06
Li     1 -0.4784490000000  0.4563420000000 -0.4441620000000 1.0  -0.06
Li     1 -0.4784490000000  0.0994960000000 -0.4563420000000 1.0  -0.06
Li     1 -0.3182730000000 -0.3333330000000  0.3333330000000 1.0   0.08
O      2  0.2251030000000  0.3333330000000 -0.3333330000000 1.0   0.17
O      2 -0.3334610000000 -0.0000000000000  0.0000000000000 1.0   0.45
S      3  0.1818950000000 -0.1799940000000  0.2071220000000 1.0   0.20
S      3  0.1818950000000  0.3871160000000  0.1799940000000 1.0   0.20
S      3  0.1818950000000 -0.2071220000000 -0.3871160000000 1.0   0.20
Fe     4  0.0849800000000  0.0981400000000 -0.1119570000000 1.0   3.39
Fe     4  0.0849800000000 -0.2100970000000 -0.0981400000000 1.0   3.39
Fe     4  0.0849800000000  0.1119570000000  0.2100970000000 1.0   3.39
END
