TITL LFSO-Li2Fe4S2O3-200912-075845-12efaf 0.3530 307.827296 -11549.52031203 15.0302 15.7453 22 (Pm) n - 1
REM
REM Run started: Tue, 15 Sep 2020 14:53:51 +0100 in /lustre/scratch/uccabz1/launch_tmp/launcher_2020-09-13-22-13-09-711485
REM CASTEP 20.1 from code version af48c487+ pr-geom-scf-spinfix Tue Jun 2 15:39:59 2020 +0100
REM Functional Perdew Burke Ernzerhof Relativity Koelling-Harmon Dispersion off
REM Cut-off 340.0000 eV Grid scale 1.7500 Gmax 16.5316 1/A FBSC none
REM MP grid 5 3 1 Offset 0.000 0.000 0.000 No. kpts 8 Spacing 0.07
REM Total runtime: 274644 s
REM Overall efficiency: 96.8182 %
REM
REM
REM
REM compiler GCC version 4.9.2
REM options -cpp -iprefix /lustre/shared/ucl/apps/gcc/4.9.2/bin/../lib/gcc/x86_64-unknown-linux-gnu/4.9.2/ -mtune=corei7 -march=x86-64 -g -Og
REM COMMAND_LINE
REM seed 1854771683 -1495037963 1328537880 835676412 -2058082370 -424688043 1929051737 608428667 1777579437 177722612 150571790 1747211693
REM
REM S 3|1.8|5|6|7|30:31:32(qc=5)
REM O 2|1.5|12|13|15|20:21(qc=5)
REM Li 1|1.3|8|9|10|10U:20(qc=5)
REM Fe 3|2.2|2.0|1.0|8|9|10|40:41:32(qc=5)
REM 
CELL 1.54180    3.17618    6.04157   16.23000   90.00000   90.00000   98.73444
LATT -1
SFAC Li O  S  Fe 
Li     1 -0.3077980000000 -0.4925370000000 -0.0879590000000 1.0  -0.03
Li     1 -0.3077980000000 -0.4925370000000  0.0879590000000 1.0  -0.03
Li     1 -0.1308930000000  0.2680540000000 -0.2283960000000 1.0  -0.02
Li     1 -0.1308930000000  0.2680540000000  0.2283960000000 1.0  -0.02
O      2 -0.1061460000000 -0.1893910000000 -0.0835840000000 1.0  -0.02
O      2 -0.1061460000000 -0.1893910000000  0.0835840000000 1.0  -0.02
O      2  0.3991340000000 -0.1611420000000  0.4131190000000 1.0  -0.09
O      2  0.3991340000000 -0.1611420000000 -0.4131190000000 1.0  -0.09
O      2  0.1504430000000  0.3757740000000 -0.1259570000000 1.0  -0.09
O      2  0.1504430000000  0.3757740000000  0.1259570000000 1.0  -0.09
S      3 -0.0951320000000 -0.1653730000000 -0.2511590000000 1.0   0.00
S      3 -0.0951320000000 -0.1653730000000  0.2511590000000 1.0   0.00
S      3 -0.1501940000000  0.3525130000000  0.3906850000000 1.0   0.02
S      3 -0.1501940000000  0.3525130000000 -0.3906850000000 1.0   0.02
Fe     4 -0.7000000000000  0.1333620000000 -0.4333490000000 1.0  -1.73
Fe     4 -0.7000000000000  0.1333620000000  0.4333490000000 1.0  -1.73
Fe     4  0.4180950000000 -0.1438980000000 -0.1556850000000 1.0   1.75
Fe     4  0.4180950000000 -0.1438980000000  0.1556850000000 1.0   1.75
Fe     4 -0.1182740000000 -0.2560750000000 -0.3810830000000 1.0  -1.64
Fe     4 -0.1182740000000 -0.2560750000000  0.3810830000000 1.0  -1.64
Fe     4  0.0270330000000  0.1118380000000 -0.0833090000000 1.0  -1.96
Fe     4  0.0270330000000  0.1118380000000  0.0833090000000 1.0  -1.96
END
