TITL LFSO-Li2Fe4SO4-200911-233522-825355 -0.0259 169.669030 -5.90875533E+003 6.59288 13.8712 11 (R3m) n - 1
REM
REM Run started: Sat, 12 Sep 2020 03:02:47 +0100 in /lustre/scratch/uccabz1/launch_tmp/launcher_2020-09-11-22-35-20-963288
REM CASTEP 20.1 from code version af48c487+ pr-geom-scf-spinfix Tue Jun 2 15:39:59 2020 +0100
REM Functional Perdew Burke Ernzerhof Relativity Koelling-Harmon Dispersion off
REM Cut-off 340.0000 eV Grid scale 1.7500 Gmax 16.5316 1/A FBSC none
REM MP grid 3 3 3 Offset 0.000 0.000 0.000 No. kpts 6 Spacing 0.07
REM Total runtime: 13725.5 s
REM Overall efficiency: 97.1111 %
REM
REM
REM
REM compiler GCC version 4.9.2
REM options -cpp -iprefix /lustre/shared/ucl/apps/gcc/4.9.2/bin/../lib/gcc/x86_64-unknown-linux-gnu/4.9.2/ -mtune=corei7 -march=x86-64 -g -Og
REM COMMAND_LINE
REM seed -888395547 1200460585 -1785352410 943227169 -1977381737 2003251880 1109347605 -940667647 679842297 -702999544 -1753184228 -393184038
REM
REM S 3|1.8|5|6|7|30:31:32(qc=5)
REM O 2|1.5|12|13|15|20:21(qc=5)
REM Li 1|1.3|8|9|10|10U:20(qc=5)
REM Fe 3|2.2|2.0|1.0|8|9|10|40:41:32(qc=5)
REM 
CELL 1.54180    6.10399    6.10399    6.33002   61.17433   61.17433   60.00000
LATT -1
SFAC Li O  S  Fe 
Li     1  0.0936200000000  0.0936200000000 -0.2808600000000 1.0  -0.03
Li     1 -0.3277270000000 -0.3277270000000 -0.0168190000000 1.0  -0.22
O      2 -0.5322090000000  0.0260260000000  0.4803810000000 1.0   0.07
O      2  0.0258020000000 -0.5322090000000  0.4803810000000 1.0   0.07
O      2  0.0260260000000  0.0258020000000  0.4803810000000 1.0   0.07
O      2 -0.4401530000000 -0.4401530000000  0.3204580000000 1.0   0.32
S      3  0.3835220000000  0.3835220000000 -0.1505650000000 1.0   0.08
Fe     4 -0.3462470000000  0.1589100000000 -0.4662320000000 1.0   3.21
Fe     4 -0.3464310000000 -0.3462470000000 -0.4662320000000 1.0   3.21
Fe     4  0.1589100000000 -0.3464310000000 -0.4662320000000 1.0   3.21
Fe     4  0.2441210000000  0.2441210000000  0.2676370000000 1.0  -3.41
END
