TITL LFSO-Li3Fe3S5O-200928-202430-d66a85 0.0164 248.277326 -5.14641052E+003 9.78112 10.1133 12 (P2) n - 1
REM
REM Run started: Tue, 29 Sep 2020 16:34:49 +0100 in /scratch/scratch/uccabz1/launch_tmp/launcher_2020-09-28-19-24-29-319811
REM CASTEP 19.11| from code version Version unavailable
REM Functional Perdew Burke Ernzerhof Relativity Koelling-Harmon Dispersion off
REM Cut-off 340.0000 eV Grid scale 1.7500 Gmax 16.5316 1/A FBSC none
REM MP grid 4 3 2 Offset 0.000 0.000 0.000 No. kpts 6 Spacing 0.07
REM Total runtime: 31946 s
REM Overall efficiency: 98.3077 %
REM
REM
REM
REM compiler GCC version 4.9.2
REM options -cpp -iprefix /scratch/UCL/applications/gcc/4.9.2/bin/../lib/gcc/x86_64-unknown-linux-gnu/4.9.2/ -mtune=corei7 -march=x86-64 -g -O2
REM COMMAND_LINE
REM seed -766332164 1427956759 32540461 2145905118 -1953345929 -956687956 1873622024 857877205 -948349826 667377585 -407957523 1458371887
REM
REM S 3|1.8|5|6|7|30:31:32(qc=5)
REM O 2|1.5|12|13|15|20:21(qc=5)
REM Li 1|1.3|8|9|10|10U:20(qc=5)
REM Fe 3|2.2|2.0|1.0|8|9|10|40:41:32(qc=5)
REM 
CELL 1.54180    4.71803    5.54120    9.54314   84.34565   90.00000   90.00000
LATT -1
SFAC Li O  S  Fe 
Li     1  0.0534780000000  0.3132740000000  0.3221020000000 1.0  -0.02
Li     1  0.0534780000000 -0.3132740000000 -0.3221020000000 1.0  -0.02
Li     1  0.1245120000000  0.5000000000000  0.0000000000000 1.0  -0.10
O      2 -0.4964420000000  0.5000000000000  0.0000000000000 1.0   0.29
S      3 -0.1592050000000 -0.1506130000000  0.1380090000000 1.0   0.19
S      3 -0.1592050000000  0.1506130000000 -0.1380090000000 1.0   0.19
S      3 -0.4478710000000  0.2784980000000  0.2980560000000 1.0   0.15
S      3 -0.4478710000000 -0.2784980000000 -0.2980560000000 1.0   0.15
S      3  0.0623850000000  0.0000000000000 -0.5000000000000 1.0   0.27
Fe     4 -0.3395620000000 -0.2101220000000 -0.0714810000000 1.0   2.65
Fe     4 -0.3395620000000  0.2101220000000  0.0714810000000 1.0   2.65
Fe     4  0.5632500000000  0.0000000000000  0.5000000000000 1.0   3.40
END
