TITL LFSO-Li2Fe2S2O-200913-125200-0c71c1 0.0193 358.574629 -9.51583166E+003 0.310652E-01 0.661319E-01 21 (Imm2) n - 1
REM
REM Run started: Mon, 14 Sep 2020 09:18:55 +0100 in /lustre/scratch/uccabz1/launch_tmp/launcher_2020-09-14-06-56-26-384126
REM CASTEP 20.1 from code version af48c487+ pr-geom-scf-spinfix Tue Jun 2 15:39:59 2020 +0100
REM Functional Perdew Burke Ernzerhof Relativity Koelling-Harmon Dispersion off
REM Cut-off 340.0000 eV Grid scale 1.7500 Gmax 16.5316 1/A FBSC none
REM MP grid 2 3 3 Offset 0.000 0.000 0.000 No. kpts 9 Spacing 0.07
REM Total runtime: 68183.2 s
REM Overall efficiency: 98.9 %
REM
REM
REM
REM compiler GCC version 4.9.2
REM options -cpp -iprefix /lustre/shared/ucl/apps/gcc/4.9.2/bin/../lib/gcc/x86_64-unknown-linux-gnu/4.9.2/ -mtune=corei7 -march=x86-64 -g -Og
REM COMMAND_LINE
REM seed -1888901157 8247023 -1966465148 61680219 -288500045 1515924418 -1923288956 -420349844 2007767466 1770770936 1182865338 -83054231
REM
REM S 3|1.8|5|6|7|30:31:32(qc=5)
REM O 2|1.5|12|13|15|20:21(qc=5)
REM Li 1|1.3|8|9|10|10U:20(qc=5)
REM Fe 3|2.2|2.0|1.0|8|9|10|40:41:32(qc=5)
REM 
CELL 1.54180    8.18524    8.18524    8.18524  134.38769   92.68516  104.69316
LATT -1
SFAC Li O  S  Fe 
Li     1 -0.3143860000000 -0.2168240000000 -0.1721770000000 1.0   0.00
Li     1  0.3143860000000  0.1422090000000  0.0975630000000 1.0   0.00
Li     1 -0.0446460000000 -0.2168240000000  0.0975630000000 1.0   0.00
Li     1  0.0446460000000  0.1422090000000 -0.1721770000000 1.0   0.00
Li     1  0.3467130000000 -0.1734770000000 -0.5201900000000 1.0  -0.00
Li     1 -0.3467130000000  0.1330970000000 -0.5201900000000 1.0  -0.00
O      2  0.2538530000000  0.4720110000000 -0.2741360000000 1.0  -0.00
O      2 -0.2538530000000  0.4720110000000  0.2181590000000 1.0  -0.00
O      2  0.5000000000000  0.1395180000000 -0.3604820000000 1.0   0.00
S      3 -0.0959130000000  0.3616940000000 -0.1696980000000 1.0   0.00
S      3  0.0959130000000 -0.0737850000000 -0.5423930000000 1.0   0.00
S      3 -0.4686090000000  0.3616940000000 -0.5423930000000 1.0   0.00
S      3  0.4686090000000 -0.0737850000000 -0.1696980000000 1.0   0.00
S      3  0.1695970000000 -0.5895560000000  0.2408460000000 1.0   0.00
S      3 -0.1695970000000  0.0712490000000  0.2408460000000 1.0   0.00
Fe     4  0.0315520000000  0.2220010000000 -0.4453350000000 1.0   0.01
Fe     4 -0.0315520000000 -0.4768870000000  0.1904490000000 1.0   0.01
Fe     4 -0.3326640000000  0.2220010000000  0.1904490000000 1.0   0.01
Fe     4  0.3326640000000 -0.4768870000000 -0.4453350000000 1.0   0.01
Fe     4 -0.3445680000000  0.2348450000000 -0.1097230000000 1.0  -0.00
Fe     4  0.3445680000000  0.2348450000000 -0.4205870000000 1.0  -0.00
END
