TITL LFSO-Li4Fe2S2O3-200911-111838-533cac -0.0398 294.185443 -8.89916179E+003 13.9045 14.0817 22 (P21) n - 1
REM
REM Run started: Fri, 11 Sep 2020 17:53:00 +0100 in /lustre/scratch/uccabz1/launch_tmp/launcher_2020-09-11-10-18-36-414214
REM CASTEP 20.1 from code version af48c487+ pr-geom-scf-spinfix Tue Jun 2 15:39:59 2020 +0100
REM Functional Perdew Burke Ernzerhof Relativity Koelling-Harmon Dispersion off
REM Cut-off 340.0000 eV Grid scale 1.7500 Gmax 16.5316 1/A FBSC none
REM MP grid 4 2 2 Offset 0.000 0.000 0.000 No. kpts 4 Spacing 0.07
REM Total runtime: 25868.9 s
REM Overall efficiency: 94 %
REM
REM
REM
REM compiler GCC version 4.9.2
REM options -cpp -iprefix /lustre/shared/ucl/apps/gcc/4.9.2/bin/../lib/gcc/x86_64-unknown-linux-gnu/4.9.2/ -mtune=corei7 -march=x86-64 -g -Og
REM COMMAND_LINE
REM seed 1188129465 -1520801954 -633423545 -1636473168 -1605061846 -2128242587 -534881337 117273370 -290905006 -1787838473 1482599815 702837032
REM
REM S 3|1.8|5|6|7|30:31:32(qc=5)
REM O 2|1.5|12|13|15|20:21(qc=5)
REM Li 1|1.3|8|9|10|10U:20(qc=5)
REM Fe 3|2.2|2.0|1.0|8|9|10|40:41:32(qc=5)
REM 
CELL 1.54180    3.83410    9.30309    8.43792   90.00000   90.00000  102.19064
LATT -1
SFAC Li O  S  Fe 
Li     1  0.2929350000000  0.0869180000000  0.5098170000000 1.0  -0.02
Li     1 -0.2929350000000 -0.0869180000000  0.0098170000000 1.0  -0.02
Li     1  0.1328750000000 -0.2255600000000 -0.1147090000000 1.0  -0.02
Li     1 -0.1328750000000  0.2255600000000  0.3852910000000 1.0  -0.02
Li     1  0.0244020000000  0.5407910000000 -0.4057110000000 1.0  -0.06
Li     1 -0.0244020000000 -0.5407910000000  0.0942890000000 1.0  -0.06
Li     1  0.8716580000000  0.2361960000000 -0.2683510000000 1.0   0.01
Li     1 -0.8716580000000 -0.2361960000000  0.2316490000000 1.0   0.01
O      2  0.3593550000000  0.2122610000000  0.3208280000000 1.0   0.23
O      2 -0.3593550000000 -0.2122610000000 -0.1791720000000 1.0   0.23
O      2 -0.0288900000000 -0.5625130000000  0.3652980000000 1.0   0.29
O      2  0.0288900000000  0.5625130000000 -0.1347020000000 1.0   0.29
O      2 -0.2084050000000  0.0837210000000 -0.4289700000000 1.0   0.18
O      2  0.2084050000000 -0.0837210000000  0.0710300000000 1.0   0.18
S      3  0.1507080000000 -0.1856960000000 -0.4728320000000 1.0   0.09
S      3 -0.1507080000000  0.1856960000000  0.0271680000000 1.0   0.09
S      3  0.4461270000000  0.3899610000000 -0.3455320000000 1.0   0.15
S      3 -0.4461270000000 -0.3899610000000  0.1544680000000 1.0   0.15
Fe     4 -0.4693510000000 -0.4333830000000 -0.1402930000000 1.0   3.36
Fe     4  0.4693510000000  0.4333830000000  0.3597070000000 1.0   3.36
Fe     4 -0.3061940000000 -0.1015270000000 -0.3576010000000 1.0   2.73
Fe     4  0.3061940000000  0.1015270000000  0.1423990000000 1.0   2.73
END
