TITL LFSO-Li2Fe2S2O-200913-115852-c77a47 -0.0069 117.961241 -3.17222384E+003 7.45663 7.53350 7 (P2) n - 1
REM
REM Run started: Sun, 13 Sep 2020 13:14:03 +0100 in /lustre/scratch/uccabz1/launch_tmp/launcher_2020-09-13-10-58-50-616594
REM CASTEP 20.1 from code version af48c487+ pr-geom-scf-spinfix Tue Jun 2 15:39:59 2020 +0100
REM Functional Perdew Burke Ernzerhof Relativity Koelling-Harmon Dispersion off
REM Cut-off 340.0000 eV Grid scale 1.7500 Gmax 16.5316 1/A FBSC none
REM MP grid 5 3 3 Offset 0.000 0.000 0.000 No. kpts 15 Spacing 0.07
REM Total runtime: 4534.43 s
REM Overall efficiency: 91.0909 %
REM
REM
REM
REM compiler GCC version 4.9.2
REM options -cpp -iprefix /lustre/shared/ucl/apps/gcc/4.9.2/bin/../lib/gcc/x86_64-unknown-linux-gnu/4.9.2/ -mtune=corei7 -march=x86-64 -g -Og
REM COMMAND_LINE
REM seed -107218816 89168451 -1400768303 -1982164074 -1430181432 -1037242132 1399402938 -2033679671 1641674734 -798526162 108860115 -922407798
REM
REM S 3|1.8|5|6|7|30:31:32(qc=5)
REM O 2|1.5|12|13|15|20:21(qc=5)
REM Li 1|1.3|8|9|10|10U:20(qc=5)
REM Fe 3|2.2|2.0|1.0|8|9|10|40:41:32(qc=5)
REM 
CELL 1.54180    3.54827    5.26909    6.67124  108.95776   90.00000   90.00000
LATT -1
SFAC Li O  S  Fe 
Li     1 -0.4252460000000 -0.2709240000000  0.2170020000000 1.0   0.00
Li     1 -0.4252460000000  0.2709240000000 -0.2170020000000 1.0   0.00
O      2  0.5972150000000  0.0000000000000  0.5000000000000 1.0   0.30
S      3  0.1088390000000  0.3609890000000  0.1977180000000 1.0   0.28
S      3  0.1088390000000 -0.3609890000000 -0.1977180000000 1.0   0.28
Fe     4 -0.3881240000000  0.2761320000000  0.3764290000000 1.0   3.30
Fe     4 -0.3881240000000 -0.2761320000000 -0.3764290000000 1.0   3.30
END
