TITL LFSO-Li6FeS2O2-200920-210707-a1dee4 0.0571 274.197280 -3.54575356E+003 3.97996 4.10383 11 (Pmm2) n - 1
REM
REM Run started: Mon, 21 Sep 2020 00:38:35 +0100 in /lustre/scratch/uccabz1/launch_tmp/launcher_2020-09-20-20-07-05-867327
REM CASTEP 20.1 from code version af48c487+ pr-geom-scf-spinfix Tue Jun 2 15:39:59 2020 +0100
REM Functional Perdew Burke Ernzerhof Relativity Koelling-Harmon Dispersion off
REM Cut-off 340.0000 eV Grid scale 1.7500 Gmax 16.5316 1/A FBSC none
REM MP grid 4 2 3 Offset 0.000 0.000 0.000 No. kpts 6 Spacing 0.07
REM Total runtime: 14683.4 s
REM Overall efficiency: 96.0833 %
REM
REM
REM
REM compiler GCC version 4.9.2
REM options -cpp -iprefix /lustre/shared/ucl/apps/gcc/4.9.2/bin/../lib/gcc/x86_64-unknown-linux-gnu/4.9.2/ -mtune=corei7 -march=x86-64 -g -Og
REM COMMAND_LINE
REM seed -588973207 -474389678 -598244771 728867963 407261067 154531460 -1954673753 -1299485732 -360021595 407069147 -1521470265 -1543189706
REM
REM S 3|1.8|5|6|7|30:31:32(qc=5)
REM O 2|1.5|12|13|15|20:21(qc=5)
REM Li 1|1.3|8|9|10|10U:20(qc=5)
REM Fe 3|2.2|2.0|1.0|8|9|10|40:41:32(qc=5)
REM 
CELL 1.54180    3.82114   11.56649    6.20396   90.00000   89.97874   90.00000
LATT -1
SFAC Li O  S  Fe 
Li     1 -0.3072250000000 -0.1706030000000 -0.7610940000000 1.0  -0.08
Li     1 -0.3072250000000  0.1706030000000 -0.7610940000000 1.0  -0.08
Li     1  0.1970570000000 -0.1841720000000 -0.3823850000000 1.0  -0.01
Li     1  0.1970570000000  0.1841720000000 -0.3823850000000 1.0  -0.01
Li     1  0.1968830000000  0.2474030000000  0.0179250000000 1.0   0.01
Li     1  0.1968830000000 -0.2474030000000  0.0179250000000 1.0   0.01
O      2  0.1920280000000  0.1542240000000  0.3046330000000 1.0   0.18
O      2  0.1920280000000 -0.1542240000000  0.3046330000000 1.0   0.18
S      3 -0.3039250000000 -0.2159750000000 -0.1630160000000 1.0   0.14
S      3 -0.3039250000000  0.2159750000000 -0.1630160000000 1.0   0.14
Fe     4  0.1890760000000  0.0000000000000  0.2676600000000 1.0   3.50
END
