TITL LFSO-Li2Fe4SO4-200912-024052-ac219f 0.0493 207.373629 -5.90757263E+003 7.99391 13.7176 11 (P3) n - 1
REM
REM Run started: Sat, 12 Sep 2020 13:25:19 +0100 in /lustre/scratch/uccabz1/launch_tmp/launcher_2020-09-12-01-40-50-914266
REM CASTEP 20.1 from code version af48c487+ pr-geom-scf-spinfix Tue Jun 2 15:39:59 2020 +0100
REM Functional Perdew Burke Ernzerhof Relativity Koelling-Harmon Dispersion off
REM Cut-off 340.0000 eV Grid scale 1.7500 Gmax 16.5316 1/A FBSC none
REM MP grid 4 4 2 Offset 0.000 0.000 0.000 No. kpts 16 Spacing 0.07
REM Total runtime: 38756.2 s
REM Overall efficiency: 96.5833 %
REM
REM
REM
REM compiler GCC version 4.9.2
REM options -cpp -iprefix /lustre/shared/ucl/apps/gcc/4.9.2/bin/../lib/gcc/x86_64-unknown-linux-gnu/4.9.2/ -mtune=corei7 -march=x86-64 -g -Og
REM COMMAND_LINE
REM seed 1797770757 -1766621043 -1082171202 2051975112 -1202144663 -189666429 -762535729 -1068332830 -433520163 1116673609 2098598469 1439983377
REM
REM S 3|1.8|5|6|7|30:31:32(qc=5)
REM O 2|1.5|12|13|15|20:21(qc=5)
REM Li 1|1.3|8|9|10|10U:20(qc=5)
REM Fe 3|2.2|2.0|1.0|8|9|10|40:41:32(qc=5)
REM 
CELL 1.54180    5.45713    5.45713    8.04071   90.00000   90.00000  120.00000
LATT -1
SFAC Li O  S  Fe 
Li     1 -0.3333330000000  0.3333330000000 -0.5412460000000 1.0   0.20
Li     1  0.3333330000000 -0.3333330000000  0.7437300000000 1.0  -0.07
O      2 -0.3263590000000  0.0091050000000 -0.2257610000000 1.0   0.04
O      2 -0.0091050000000 -0.3354640000000 -0.2257610000000 1.0   0.04
O      2  0.3354640000000  0.3263590000000 -0.2257610000000 1.0   0.04
O      2  0.3333330000000 -0.3333330000000  0.0544370000000 1.0   0.39
S      3 -0.3333330000000  0.3333330000000  0.1768890000000 1.0   0.18
Fe     4  0.0051850000000 -0.2986790000000  0.0003170000000 1.0   3.27
Fe     4  0.2986790000000  0.3038640000000  0.0003170000000 1.0   3.27
Fe     4 -0.3038640000000 -0.0051850000000  0.0003170000000 1.0   3.27
Fe     4 -0.3333330000000  0.3333330000000 -0.2257410000000 1.0  -2.66
END
