TITL LFSO-Li3Fe3S2O4-200929-140002-6b00d6 0.0012 524.067663 -1.10907346E+004 5.12013 5.44070 24 (Pmm2) n - 1
REM
REM Run started: Wed, 30 Sep 2020 09:52:02 +0100 in /lustre/scratch/uccabz1/launch_tmp/launcher_2020-09-30-08-31-26-502060
REM CASTEP 20.1 from code version af48c487+ pr-geom-scf-spinfix Tue Jun 2 15:39:59 2020 +0100
REM Functional Perdew Burke Ernzerhof Relativity Koelling-Harmon Dispersion off
REM Cut-off 340.0000 eV Grid scale 1.7500 Gmax 16.5316 1/A FBSC none
REM MP grid 3 3 2 Offset 0.000 0.000 0.000 No. kpts 4 Spacing 0.07
REM Total runtime: 66759.6 s
REM Overall efficiency: 91.4 %
REM
REM
REM
REM compiler GCC version 4.9.2
REM options -cpp -iprefix /lustre/shared/ucl/apps/gcc/4.9.2/bin/../lib/gcc/x86_64-unknown-linux-gnu/4.9.2/ -mtune=corei7 -march=x86-64 -g -Og
REM COMMAND_LINE
REM seed 2106566466 -204643853 -1345968699 422754038 -417302961 2038936059 -249663505 1441532726 1623402884 1799279195 -120846174 322088323
REM
REM S 3|1.8|5|6|7|30:31:32(qc=5)
REM O 2|1.5|12|13|15|20:21(qc=5)
REM Li 1|1.3|8|9|10|10U:20(qc=5)
REM Fe 3|2.2|2.0|1.0|8|9|10|40:41:32(qc=5)
REM 
CELL 1.54180    6.85056    6.19293   12.35279   90.00000   90.00000   90.00000
LATT -1
SFAC Li O  S  Fe 
Li     1 -0.3234490000000  0.2464250000000  0.2854850000000 1.0  -0.01
Li     1 -0.3234490000000 -0.2464250000000 -0.2854850000000 1.0  -0.01
Li     1 -0.3234490000000  0.2464250000000 -0.2854850000000 1.0  -0.01
Li     1 -0.3234490000000 -0.2464250000000  0.2854850000000 1.0  -0.01
Li     1  0.3847260000000  0.5000000000000 -0.2522910000000 1.0   0.02
Li     1  0.3847260000000  0.5000000000000  0.2522910000000 1.0   0.02
O      2  0.4482710000000  0.2507550000000  0.3653580000000 1.0   0.18
O      2  0.4482710000000 -0.2507550000000 -0.3653580000000 1.0   0.18
O      2  0.4482710000000  0.2507550000000 -0.3653580000000 1.0   0.18
O      2  0.4482710000000 -0.2507550000000  0.3653580000000 1.0   0.18
O      2  0.5307910000000 -0.2791010000000 -0.1531690000000 1.0   0.03
O      2  0.5307910000000  0.2791010000000  0.1531690000000 1.0   0.03
O      2  0.5307910000000 -0.2791010000000  0.1531690000000 1.0   0.03
O      2  0.5307910000000  0.2791010000000 -0.1531690000000 1.0   0.03
S      3 -0.0186680000000 -0.1812200000000  0.1640870000000 1.0  -0.01
S      3 -0.0186680000000  0.1812200000000 -0.1640870000000 1.0  -0.01
S      3 -0.0186680000000 -0.1812200000000 -0.1640870000000 1.0  -0.01
S      3 -0.0186680000000  0.1812200000000  0.1640870000000 1.0  -0.01
Fe     4 -0.2863800000000 -0.1781370000000 -0.0834780000000 1.0   0.07
Fe     4 -0.2863800000000  0.1781370000000  0.0834780000000 1.0   0.07
Fe     4 -0.2863800000000 -0.1781370000000  0.0834780000000 1.0   0.07
Fe     4 -0.2863800000000  0.1781370000000 -0.0834780000000 1.0   0.07
Fe     4  0.4208680000000  0.0000000000000 -0.4138480000000 1.0   2.02
Fe     4  0.4208680000000  0.0000000000000  0.4138480000000 1.0   2.02
END
