TITL LFSO-Li5FeS3O-200910-103349-55a76c -0.2424 1470.931228 -6.42423686E+003 6.02607 6.75168 20 (Pm) n - 1
REM
REM Run started: Fri, 11 Sep 2020 06:57:50 +0100 in /lustre/scratch/uccabz1/launch_tmp/launcher_2020-09-10-09-33-46-891198
REM CASTEP 20.1 from code version af48c487+ pr-geom-scf-spinfix Tue Jun 2 15:39:59 2020 +0100
REM Functional Perdew Burke Ernzerhof Relativity Koelling-Harmon Dispersion off
REM Cut-off 340.0000 eV Grid scale 1.7500 Gmax 16.5316 1/A FBSC none
REM MP grid 3 3 1 Offset 0.000 0.000 0.000 No. kpts 5 Spacing 0.07
REM Total runtime: 93104 s
REM Overall efficiency: 86.5833 %
REM
REM
REM
REM compiler GCC version 4.9.2
REM options -cpp -iprefix /lustre/shared/ucl/apps/gcc/4.9.2/bin/../lib/gcc/x86_64-unknown-linux-gnu/4.9.2/ -mtune=corei7 -march=x86-64 -g -Og
REM COMMAND_LINE
REM seed 797231988 -1559159288 -213156313 1323523985 2069852098 -624217851 1405663345 769746733 1616103410 -922068991 -608563865 -758851594
REM
REM S 3|1.8|5|6|7|30:31:32(qc=5)
REM O 2|1.5|12|13|15|20:21(qc=5)
REM Li 1|1.3|8|9|10|10U:20(qc=5)
REM Fe 3|2.2|2.0|1.0|8|9|10|40:41:32(qc=5)
REM 
CELL 1.54180    7.41452    6.48703   30.58496   90.00000   90.00000   89.18159
LATT -1
SFAC Li O  S  Fe 
Li     1  0.2763930000000 -0.2001270000000 -0.2124350000000 1.0  -0.02
Li     1  0.2763930000000 -0.2001270000000  0.2124350000000 1.0  -0.02
Li     1 -0.3742230000000  0.4618360000000 -0.2526800000000 1.0   0.02
Li     1 -0.3742230000000  0.4618360000000  0.2526800000000 1.0   0.02
Li     1  0.1049650000000  0.1007450000000 -0.2962870000000 1.0   0.00
Li     1  0.1049650000000  0.1007450000000  0.2962870000000 1.0   0.00
Li     1 -0.0978260000000 -0.2273280000000  0.2499530000000 1.0  -0.01
Li     1 -0.0978260000000 -0.2273280000000 -0.2499530000000 1.0  -0.01
Li     1  0.4236490000000 -0.0167800000000  0.2708060000000 1.0   0.03
Li     1  0.4236490000000 -0.0167800000000 -0.2708060000000 1.0   0.03
O      2  0.1558170000000 -0.1634990000000  0.2662790000000 1.0   0.12
O      2  0.1558170000000 -0.1634990000000 -0.2662790000000 1.0   0.12
S      3  0.3840560000000  0.3193260000000 -0.3020570000000 1.0   0.10
S      3  0.3840560000000  0.3193260000000  0.3020570000000 1.0   0.10
S      3 -0.4105830000000 -0.2077280000000 -0.2206210000000 1.0  -0.01
S      3 -0.4105830000000 -0.2077280000000  0.2206210000000 1.0  -0.01
S      3 -0.0606530000000  0.4393370000000  0.2927920000000 1.0   0.18
S      3 -0.0606530000000  0.4393370000000 -0.2927920000000 1.0   0.18
Fe     4  0.1977560000000 -0.4307030000000  0.2854680000000 1.0   2.59
Fe     4  0.1977560000000 -0.4307030000000 -0.2854680000000 1.0   2.59
END
