TITL LFSO-Li4Fe3SO4-200927-231251-5d5237 0.0074 290.939666 -1.08921357E+004 21.1077 21.4229 24 (P-1) n - 1
REM
REM Run started: Tue, 29 Sep 2020 22:18:27 +0100 in /scratch/scratch/uccabz1/launch_tmp/launcher_2020-09-27-22-12-48-584805
REM CASTEP 19.11| from code version Version unavailable
REM Functional Perdew Burke Ernzerhof Relativity Koelling-Harmon Dispersion off
REM Cut-off 340.0000 eV Grid scale 1.7500 Gmax 16.5316 1/A FBSC none
REM MP grid 5 2 2 Offset 0.000 0.000 0.000 No. kpts 10 Spacing 0.07
REM Total runtime: 158295 s
REM Overall efficiency: 82 %
REM
REM
REM
REM compiler GCC version 4.9.2
REM options -cpp -iprefix /scratch/UCL/applications/gcc/4.9.2/bin/../lib/gcc/x86_64-unknown-linux-gnu/4.9.2/ -mtune=corei7 -march=x86-64 -g -O2
REM COMMAND_LINE
REM seed 880384289 -251446410 -804984046 1810086177 -452103354 2003519278 -4622771 1109531433 169278056 -2004856035 -616600880 -1988906648
REM
REM S 3|1.8|5|6|7|30:31:32(qc=5)
REM O 2|1.5|12|13|15|20:21(qc=5)
REM Li 1|1.3|8|9|10|10U:20(qc=5)
REM Fe 3|2.2|2.0|1.0|8|9|10|40:41:32(qc=5)
REM 
CELL 1.54180    3.34380    9.53847   10.28016  112.67460   82.61028  105.84855
LATT -1
SFAC Li O  S  Fe 
Li     1  0.0289050000000  0.4826820000000  0.3802370000000 1.0   0.04
Li     1 -0.0289050000000 -0.4826820000000 -0.3802370000000 1.0   0.04
Li     1 -0.0825410000000 -0.3342500000000 -0.1318200000000 1.0  -0.01
Li     1  0.0825410000000  0.3342500000000  0.1318200000000 1.0  -0.01
Li     1  0.3585940000000  0.3288740000000 -0.4120090000000 1.0  -0.07
Li     1 -0.3585940000000 -0.3288740000000  0.4120090000000 1.0  -0.07
Li     1 -0.5894200000000  0.2784040000000  0.3350490000000 1.0  -0.03
Li     1  0.5894200000000 -0.2784040000000 -0.3350490000000 1.0  -0.03
O      2  0.3588610000000  0.1310770000000 -0.4063600000000 1.0   0.35
O      2 -0.3588610000000 -0.1310770000000  0.4063600000000 1.0   0.35
O      2 -0.1019810000000  0.3248690000000 -0.5391180000000 1.0   0.14
O      2  0.1019810000000 -0.3248690000000  0.5391180000000 1.0   0.14
O      2 -0.5748510000000 -0.4492180000000 -0.2556960000000 1.0   0.10
O      2  0.5748510000000  0.4492180000000  0.2556960000000 1.0   0.10
O      2 -0.2376590000000 -0.0596310000000 -0.2932680000000 1.0   0.35
O      2  0.2376590000000  0.0596310000000  0.2932680000000 1.0   0.35
S      3 -0.6097550000000 -0.2916540000000  0.0698790000000 1.0   0.14
S      3  0.6097550000000  0.2916540000000 -0.0698790000000 1.0   0.14
Fe     4 -0.2994690000000  0.0921430000000  0.4149760000000 1.0   3.76
Fe     4  0.2994690000000 -0.0921430000000 -0.4149760000000 1.0   3.76
Fe     4 -0.2532650000000 -0.4534270000000  0.1090510000000 1.0   2.78
Fe     4  0.2532650000000  0.4534270000000 -0.1090510000000 1.0   2.78
Fe     4  0.0541520000000  0.1603960000000 -0.2325840000000 1.0   3.02
Fe     4 -0.0541520000000 -0.1603960000000  0.2325840000000 1.0   3.02
END
