TITL LFSO-Li2Fe2SO3-200913-060829-05d76d 0.0303 83.300862 -3.74386805E+003 7.22665 7.34200 8 (Amm2) n - 1
REM
REM Run started: Sun, 13 Sep 2020 06:21:48 +0100 in /lustre/scratch/uccabz1/launch_tmp/launcher_2020-09-13-05-08-27-796103
REM CASTEP 20.1 from code version af48c487+ pr-geom-scf-spinfix Tue Jun 2 15:39:59 2020 +0100
REM Functional Perdew Burke Ernzerhof Relativity Koelling-Harmon Dispersion off
REM Cut-off 340.0000 eV Grid scale 1.7500 Gmax 16.5316 1/A FBSC none
REM MP grid 4 4 4 Offset 0.000 0.000 0.000 No. kpts 12 Spacing 0.07
REM Total runtime: 828.34 s
REM Overall efficiency: 83.8333 %
REM
REM
REM
REM compiler GCC version 4.9.2
REM options -cpp -iprefix /lustre/shared/ucl/apps/gcc/4.9.2/bin/../lib/gcc/x86_64-unknown-linux-gnu/4.9.2/ -mtune=corei7 -march=x86-64 -g -Og
REM COMMAND_LINE
REM seed -2043981123 -72015778 -1971183999 437675832 1594857560 1797900731 1231725786 1319800594 -891781836 -1366998430 1752576461 1381193007
REM
REM S 3|1.8|5|6|7|30:31:32(qc=5)
REM O 2|1.5|12|13|15|20:21(qc=5)
REM Li 1|1.3|8|9|10|10U:20(qc=5)
REM Fe 3|2.2|2.0|1.0|8|9|10|40:41:32(qc=5)
REM 
CELL 1.54180    3.64077    4.83442    4.83442  101.77163   90.00000   90.00000
LATT -1
SFAC Li O  S  Fe 
Li     1  0.5000000000000 -0.2310010000000 -0.3542430000000 1.0  -0.04
Li     1  0.5000000000000  0.3542430000000  0.2310010000000 1.0  -0.04
O      2  0.0000000000000 -0.1972620000000 -0.2980080000000 1.0   0.32
O      2  0.0000000000000  0.2980080000000  0.1972620000000 1.0   0.32
O      2  0.5000000000000 -0.2178760000000  0.2178760000000 1.0   0.29
S      3  0.5000000000000  0.2952220000000 -0.2952220000000 1.0  -0.00
Fe     4  0.0000000000000  0.0208470000000  0.4133990000000 1.0   3.19
Fe     4  0.0000000000000 -0.4133990000000 -0.0208470000000 1.0   3.19
END
