TITL LFSO-Li4Fe2S2O3-200911-112442-4f07d2 -0.0722 280.515097 -8.89600562E+003 11.4104 14.9745 22 (R3) n - 1
REM
REM Run started: Fri, 11 Sep 2020 15:34:38 +0100 in /lustre/scratch/uccabz1/launch_tmp/launcher_2020-09-11-13-38-22-125207
REM CASTEP 20.1 from code version af48c487+ pr-geom-scf-spinfix Tue Jun 2 15:39:59 2020 +0100
REM Functional Perdew Burke Ernzerhof Relativity Koelling-Harmon Dispersion off
REM Cut-off 340.0000 eV Grid scale 1.7500 Gmax 16.5316 1/A FBSC none
REM MP grid 3 3 3 Offset 0.000 0.000 0.000 No. kpts 6 Spacing 0.07
REM Total runtime: 11913.9 s
REM Overall efficiency: 97.25 %
REM
REM
REM
REM compiler GCC version 4.9.2
REM options -cpp -iprefix /lustre/shared/ucl/apps/gcc/4.9.2/bin/../lib/gcc/x86_64-unknown-linux-gnu/4.9.2/ -mtune=corei7 -march=x86-64 -g -Og
REM COMMAND_LINE
REM seed -269339391 1316756932 1793899903 -298406091 -628238540 728480896 1961491698 -1072946023 743657252 1169818935 -1303733141 1303450315
REM
REM S 3|1.8|5|6|7|30:31:32(qc=5)
REM O 2|1.5|12|13|15|20:21(qc=5)
REM Li 1|1.3|8|9|10|10U:20(qc=5)
REM Fe 3|2.2|2.0|1.0|8|9|10|40:41:32(qc=5)
REM 
CELL 1.54180    6.59167    6.59167    6.59167   83.01824   83.01824   83.01824
LATT -1
SFAC Li O  S  Fe 
Li     1  0.4019750000000 -0.1219810000000  0.0660620000000 1.0   0.00
Li     1  0.0660620000000  0.4019750000000 -0.1219810000000 1.0   0.00
Li     1 -0.1219810000000  0.0660620000000  0.4019750000000 1.0   0.00
Li     1 -0.0401060000000 -0.3697010000000  0.2371460000000 1.0  -0.04
Li     1  0.2371460000000 -0.0401060000000 -0.3697010000000 1.0  -0.04
Li     1 -0.3697010000000  0.2371460000000 -0.0401060000000 1.0  -0.04
Li     1 -0.0719190000000 -0.0719190000000 -0.0719190000000 1.0   0.03
Li     1  0.2891820000000  0.2891820000000  0.2891820000000 1.0  -0.03
O      2  0.0124060000000 -0.1933280000000 -0.3625220000000 1.0   0.11
O      2 -0.3625220000000  0.0124060000000 -0.1933280000000 1.0   0.11
O      2 -0.1933280000000 -0.3625220000000  0.0124060000000 1.0   0.11
O      2  0.2591920000000 -0.4065020000000  0.2507170000000 1.0   0.41
O      2  0.2507170000000  0.2591920000000 -0.4065020000000 1.0   0.41
O      2 -0.4065020000000  0.2507170000000  0.2591920000000 1.0   0.41
S      3  0.4331670000000 -0.4177710000000 -0.1630510000000 1.0   0.24
S      3 -0.1630510000000  0.4331670000000 -0.4177710000000 1.0   0.24
S      3 -0.4177710000000 -0.1630510000000  0.4331670000000 1.0   0.24
S      3  0.1097960000000  0.1097960000000  0.1097960000000 1.0   0.02
Fe     4  0.5334650000000  0.2143630000000 -0.4165000000000 1.0   3.67
Fe     4 -0.4165000000000  0.5334650000000  0.2143630000000 1.0   3.67
Fe     4  0.2143630000000 -0.4165000000000  0.5334650000000 1.0   3.67
Fe     4 -0.2723070000000 -0.2723070000000 -0.2723070000000 1.0  -1.78
END
