TITL LFSO-Li3Fe3SO5-200927-035354-87418d 0.0147 492.209865 -1.13649009E+004 20.0000 20.5411 24 (Amm2) n - 1
REM
REM Run started: Sun, 27 Sep 2020 08:32:36 +0100 in /lustre/scratch/uccabz1/launch_tmp/launcher_2020-09-27-02-53-53-134624
REM CASTEP 20.1 from code version af48c487+ pr-geom-scf-spinfix Tue Jun 2 15:39:59 2020 +0100
REM Functional Perdew Burke Ernzerhof Relativity Koelling-Harmon Dispersion off
REM Cut-off 340.0000 eV Grid scale 1.7500 Gmax 16.5316 1/A FBSC none
REM MP grid 2 2 2 Offset 0.000 0.000 0.000 No. kpts 2 Spacing 0.07
REM Total runtime: 17762.7 s
REM Overall efficiency: 84.875 %
REM
REM
REM
REM compiler GCC version 4.9.2
REM options -cpp -iprefix /lustre/shared/ucl/apps/gcc/4.9.2/bin/../lib/gcc/x86_64-unknown-linux-gnu/4.9.2/ -mtune=corei7 -march=x86-64 -g -Og
REM COMMAND_LINE
REM seed -385017185 -135942692 -1113225538 -1098101245 1353968024 304951179 -1994032980 752568052 838493694 -1339985437 -1766404014 1850394854
REM
REM S 3|1.8|5|6|7|30:31:32(qc=5)
REM O 2|1.5|12|13|15|20:21(qc=5)
REM Li 1|1.3|8|9|10|10U:20(qc=5)
REM Fe 3|2.2|2.0|1.0|8|9|10|40:41:32(qc=5)
REM 
CELL 1.54180    8.77472    7.50911    7.50911   84.15928   90.00000   90.00000
LATT -1
SFAC Li O  S  Fe 
Li     1  0.2065460000000  0.3349550000000 -0.1617640000000 1.0  -0.01
Li     1 -0.2065460000000 -0.1617640000000  0.3349550000000 1.0  -0.01
Li     1  0.2065460000000 -0.1617640000000  0.3349550000000 1.0  -0.01
Li     1 -0.2065460000000  0.3349550000000 -0.1617640000000 1.0  -0.01
Li     1  0.0000000000000 -0.4604400000000  0.1261180000000 1.0   0.04
Li     1  0.0000000000000  0.1261180000000 -0.4604400000000 1.0   0.04
O      2 -0.1860410000000  0.4228760000000  0.0592080000000 1.0   0.33
O      2  0.1860410000000  0.0592080000000  0.4228760000000 1.0   0.33
O      2 -0.1860410000000  0.0592080000000  0.4228760000000 1.0   0.33
O      2  0.1860410000000  0.4228760000000  0.0592080000000 1.0   0.33
O      2 -0.1811620000000 -0.2286490000000  0.0924510000000 1.0   0.25
O      2  0.1811620000000  0.0924510000000 -0.2286490000000 1.0   0.25
O      2 -0.1811620000000  0.0924510000000 -0.2286490000000 1.0   0.25
O      2  0.1811620000000 -0.2286490000000  0.0924510000000 1.0   0.25
O      2 -0.5000000000000 -0.4492260000000 -0.0058330000000 1.0   0.17
O      2  0.5000000000000 -0.0058330000000 -0.4492260000000 1.0   0.17
S      3 -0.1227540000000 -0.3693470000000 -0.3693470000000 1.0   0.11
S      3  0.1227540000000 -0.3693470000000 -0.3693470000000 1.0   0.11
Fe     4 -0.3114330000000 -0.4046820000000  0.0569310000000 1.0   2.57
Fe     4  0.3114330000000  0.0569310000000 -0.4046820000000 1.0   2.57
Fe     4 -0.3114330000000  0.0569310000000 -0.4046820000000 1.0   2.57
Fe     4  0.3114330000000 -0.4046820000000  0.0569310000000 1.0   2.57
Fe     4  0.1482900000000 -0.1593650000000 -0.1593650000000 1.0   3.40
Fe     4 -0.1482900000000 -0.1593650000000 -0.1593650000000 1.0   3.40
END
