TITL LFSO-Li5FeS2O2-200920-233153-821f9b -0.1799 323.592004 -6.68894690E+003 -7.81672 8.07547 20 (P3) n - 1
REM
REM Run started: Mon, 21 Sep 2020 20:12:52 +0100 in /lustre/scratch/uccabz1/launch_tmp/launcher_2020-09-21-14-11-59-547321
REM CASTEP 20.1 from code version af48c487+ pr-geom-scf-spinfix Tue Jun 2 15:39:59 2020 +0100
REM Functional Perdew Burke Ernzerhof Relativity Koelling-Harmon Dispersion off
REM Cut-off 340.0000 eV Grid scale 1.7500 Gmax 16.5316 1/A FBSC none
REM MP grid 3 3 2 Offset 0.000 0.000 0.000 No. kpts 5 Spacing 0.07
REM Total runtime: 76068 s
REM Overall efficiency: 78.5455 %
REM
REM
REM
REM compiler GCC version 4.9.2
REM options -cpp -iprefix /lustre/shared/ucl/apps/gcc/4.9.2/bin/../lib/gcc/x86_64-unknown-linux-gnu/4.9.2/ -mtune=corei7 -march=x86-64 -g -Og
REM COMMAND_LINE
REM seed 781321926 -393809779 -613731406 -289355701 14842312 -1127617709 -124430689 127460334 45357822 -1722029198 447544671 -497643052
REM
REM S 3|1.8|5|6|7|30:31:32(qc=5)
REM O 2|1.5|12|13|15|20:21(qc=5)
REM Li 1|1.3|8|9|10|10U:20(qc=5)
REM Fe 3|2.2|2.0|1.0|8|9|10|40:41:32(qc=5)
REM 
CELL 1.54180    6.10293    6.10293   10.03208   90.00000   90.00000  120.00000
LATT -1
SFAC Li O  S  Fe 
Li     1  0.1901860000000 -0.1703440000000  0.2266230000000 1.0   0.01
Li     1 -0.3605310000000 -0.1901860000000  0.2266230000000 1.0   0.01
Li     1  0.1703440000000  0.3605310000000  0.2266230000000 1.0   0.01
Li     1  0.3830600000000  0.1120340000000 -0.3573770000000 1.0   0.04
Li     1 -0.2710270000000 -0.3830600000000 -0.3573770000000 1.0   0.04
Li     1 -0.1120340000000  0.2710270000000 -0.3573770000000 1.0   0.04
Li     1 -0.3390290000000  0.0704610000000 -0.1257240000000 1.0   0.01
Li     1  0.4094890000000  0.3390290000000 -0.1257240000000 1.0   0.01
Li     1 -0.0704610000000 -0.4094890000000 -0.1257240000000 1.0   0.01
Li     1 -0.3333340000000  0.3333340000000  0.0918540000000 1.0   0.07
O      2 -0.5004540000000 -0.0162860000000  0.3352800000000 1.0  -0.30
O      2  0.4841680000000  0.5004540000000  0.3352800000000 1.0  -0.30
O      2  0.0162860000000 -0.4841680000000  0.3352800000000 1.0  -0.30
O      2 -0.3333340000000  0.3333340000000 -0.2615540000000 1.0   0.00
S      3  0.0457610000000  0.3274780000000  0.0021200000000 1.0  -0.01
S      3  0.2817160000000 -0.0457610000000  0.0021200000000 1.0  -0.01
S      3 -0.3274780000000 -0.2817160000000  0.0021200000000 1.0  -0.01
S      3 -0.0000000000000  0.0000000000000  0.5511340000000 1.0  -0.03
Fe     4  0.3333330000000 -0.3333330000000  0.4234420000000 1.0  -3.61
Fe     4 -0.3333340000000  0.3333340000000  0.3579150000000 1.0  -3.51
END
