TITL LFSO-Li4Fe3S4O-200926-125515-5d7b82 -0.1391 452.986419 -1.00881610E+004 -21.4513 21.8170 24 (P2) n - 1
REM
REM Run started: Sun, 27 Sep 2020 18:32:05 +0100 in /lustre/scratch/uccabz1/launch_tmp/launcher_2020-09-26-11-55-12-688796
REM CASTEP 20.1 from code version af48c487+ pr-geom-scf-spinfix Tue Jun 2 15:39:59 2020 +0100
REM Functional Perdew Burke Ernzerhof Relativity Koelling-Harmon Dispersion off
REM Cut-off 340.0000 eV Grid scale 1.7500 Gmax 16.5316 1/A FBSC none
REM MP grid 3 3 2 Offset 0.000 0.000 0.000 No. kpts 6 Spacing 0.07
REM Total runtime: 115154 s
REM Overall efficiency: 98.75 %
REM
REM
REM
REM compiler GCC version 4.9.2
REM options -cpp -iprefix /lustre/shared/ucl/apps/gcc/4.9.2/bin/../lib/gcc/x86_64-unknown-linux-gnu/4.9.2/ -mtune=corei7 -march=x86-64 -g -Og
REM COMMAND_LINE
REM seed -1428961811 1399446153 -326683714 -1560462521 1295207278 -1018614712 495808156 -436103656 -1430035319 1039993870 -704497693 1470494884
REM
REM S 3|1.8|5|6|7|30:31:32(qc=5)
REM O 2|1.5|12|13|15|20:21(qc=5)
REM Li 1|1.3|8|9|10|10U:20(qc=5)
REM Fe 3|2.2|2.0|1.0|8|9|10|40:41:32(qc=5)
REM 
CELL 1.54180    6.71806    6.55035   10.59248  103.63811   90.00000   90.00000
LATT -1
SFAC Li O  S  Fe 
Li     1  0.1313750000000  0.2789800000000  0.4026310000000 1.0  -0.03
Li     1  0.1313750000000 -0.2789800000000 -0.4026310000000 1.0  -0.03
Li     1  0.4284190000000 -0.6242010000000 -0.3904790000000 1.0  -0.02
Li     1  0.4284190000000  0.6242010000000  0.3904790000000 1.0  -0.02
Li     1 -0.1765290000000  0.0980710000000 -0.3247850000000 1.0  -0.00
Li     1 -0.1765290000000 -0.0980710000000  0.3247850000000 1.0  -0.00
Li     1 -0.1933150000000  0.3500180000000  0.2730850000000 1.0  -0.00
Li     1 -0.1933150000000 -0.3500180000000 -0.2730850000000 1.0  -0.00
O      2 -0.0372380000000 -0.1140180000000 -0.2737750000000 1.0  -0.28
O      2 -0.0372380000000  0.1140180000000  0.2737750000000 1.0  -0.28
S      3 -0.4956460000000 -0.2457790000000 -0.3860300000000 1.0  -0.21
S      3 -0.4956460000000  0.2457790000000  0.3860300000000 1.0  -0.21
S      3  0.5621760000000 -0.3331840000000  0.1850820000000 1.0  -0.34
S      3  0.5621760000000  0.3331840000000 -0.1850820000000 1.0  -0.34
S      3  0.0646850000000 -0.3626510000000  0.3524720000000 1.0  -0.20
S      3  0.0646850000000  0.3626510000000 -0.3524720000000 1.0  -0.20
S      3  0.1706660000000 -0.2687220000000 -0.0424270000000 1.0  -0.22
S      3  0.1706660000000  0.2687220000000  0.0424270000000 1.0  -0.22
Fe     4  0.0962370000000  0.0059670000000 -0.1320180000000 1.0  -2.76
Fe     4  0.0962370000000 -0.0059670000000  0.1320180000000 1.0  -2.76
Fe     4  0.4365420000000  0.0145550000000 -0.2182400000000 1.0  -3.41
Fe     4  0.4365420000000 -0.0145550000000  0.2182400000000 1.0  -3.41
Fe     4  0.2138080000000 -0.3561480000000  0.1595660000000 1.0  -3.24
Fe     4  0.2138080000000  0.3561480000000 -0.1595660000000 1.0  -3.24
END
