TITL LFSO-Li4Fe3S2O3-200928-144233-bfc21d 0.0420 356.389230 -1.06241371E+004 23.8695 24.1913 24 (Cc) n - 1
REM
REM Run started: Tue, 29 Sep 2020 13:39:10 +0100 in /lustre/scratch/uccabz1/launch_tmp/launcher_2020-09-28-13-42-31-579632
REM CASTEP 20.1 from code version af48c487+ pr-geom-scf-spinfix Tue Jun 2 15:39:59 2020 +0100
REM Functional Perdew Burke Ernzerhof Relativity Koelling-Harmon Dispersion off
REM Cut-off 340.0000 eV Grid scale 1.7500 Gmax 16.5316 1/A FBSC none
REM MP grid 3 2 3 Offset 0.000 0.000 0.000 No. kpts 9 Spacing 0.07
REM Total runtime: 83074.9 s
REM Overall efficiency: 96.4545 %
REM
REM
REM
REM compiler GCC version 4.9.2
REM options -cpp -iprefix /lustre/shared/ucl/apps/gcc/4.9.2/bin/../lib/gcc/x86_64-unknown-linux-gnu/4.9.2/ -mtune=corei7 -march=x86-64 -g -Og
REM COMMAND_LINE
REM seed -2107443936 -1733755677 1850305755 -683722772 -985684089 -1697010465 1604559104 -212142490 694533583 1426218275 -1602974870 -2000689453
REM
REM S 3|1.8|5|6|7|30:31:32(qc=5)
REM O 2|1.5|12|13|15|20:21(qc=5)
REM Li 1|1.3|8|9|10|10U:20(qc=5)
REM Fe 3|2.2|2.0|1.0|8|9|10|40:41:32(qc=5)
REM 
CELL 1.54180    6.07903   10.09964    7.90876  119.08545   97.53508  113.36155
LATT -1
SFAC Li O  S  Fe 
Li     1  0.7764660000000  0.0518440000000  0.1188240000000 1.0  -0.05
Li     1  0.1576410000000 -0.0669800000000 -0.1188240000000 1.0  -0.05
Li     1 -0.2234410000000 -0.3855380000000 -0.1654350000000 1.0   0.00
Li     1  0.4419930000000 -0.2201030000000  0.1654350000000 1.0   0.00
Li     1 -1.1695620000000 -0.5432460000000 -0.9200960000000 1.0  -0.01
Li     1  0.2505340000000  0.3768510000000  0.9200960000000 1.0  -0.01
Li     1 -0.5011190000000 -0.2571960000000 -0.2875700000000 1.0  -0.01
Li     1  0.2864510000000  0.0303740000000  0.2875700000000 1.0  -0.01
O      2  0.6633130000000  0.4192520000000  0.2431810000000 1.0   0.40
O      2 -0.0798680000000  0.1760710000000 -0.2431810000000 1.0   0.40
O      2  0.1196150000000  0.0815910000000  0.1320110000000 1.0   0.29
O      2 -0.5123960000000 -0.0504200000000 -0.1320110000000 1.0   0.29
O      2 -0.3564930000000  0.0325790000000  0.3249370000000 1.0   0.32
O      2 -0.1814310000000 -0.2923580000000 -0.3249370000000 1.0   0.32
S      3 -0.8394660000000 -0.4496190000000 -0.2088110000000 1.0   0.20
S      3 -0.1306540000000 -0.2408080000000  0.2088110000000 1.0   0.20
S      3  0.4305310000000  0.2250330000000  0.6834470000000 1.0   0.25
S      3 -0.7529160000000 -0.4584140000000 -0.6834470000000 1.0   0.25
Fe     4  0.3304000000000  0.3131250000000  0.2419010000000 1.0   3.59
Fe     4  0.5884990000000  0.0712240000000 -0.2419010000000 1.0   3.59
Fe     4  0.7899910000000  0.2683520000000  0.5758540000000 1.0   3.45
Fe     4 -0.2858630000000 -0.3075020000000 -0.5758540000000 1.0   3.45
Fe     4 -0.0874960000000  0.0153900000000 -0.5081810000000 1.0   3.50
Fe     4 -0.0793160000000  0.5235700000000  0.5081810000000 1.0   3.50
END
