TITL LFSO-Li2Fe3SO3-200912-132055-34a88d 0.0652 147.784596 -4.60674406E+003 10.9645 11.1891 9 (P2/m) n - 1
REM
REM Run started: Sat, 12 Sep 2020 15:32:59 +0100 in /lustre/scratch/uccabz1/launch_tmp/launcher_2020-09-12-12-20-53-936634
REM CASTEP 20.1 from code version af48c487+ pr-geom-scf-spinfix Tue Jun 2 15:39:59 2020 +0100
REM Functional Perdew Burke Ernzerhof Relativity Koelling-Harmon Dispersion off
REM Cut-off 340.0000 eV Grid scale 1.7500 Gmax 16.5316 1/A FBSC none
REM MP grid 5 4 3 Offset 0.000 0.000 0.000 No. kpts 18 Spacing 0.07
REM Total runtime: 9525.62 s
REM Overall efficiency: 93.25 %
REM
REM
REM
REM compiler GCC version 4.9.2
REM options -cpp -iprefix /lustre/shared/ucl/apps/gcc/4.9.2/bin/../lib/gcc/x86_64-unknown-linux-gnu/4.9.2/ -mtune=corei7 -march=x86-64 -g -Og
REM COMMAND_LINE
REM seed -1983457872 1889186114 1611257045 -1164001146 -358542339 736168638 -90503515 -158563064 -1716932155 -1128122867 1443882635 -688059411
REM
REM S 3|1.8|5|6|7|30:31:32(qc=5)
REM O 2|1.5|12|13|15|20:21(qc=5)
REM Li 1|1.3|8|9|10|10U:20(qc=5)
REM Fe 3|2.2|2.0|1.0|8|9|10|40:41:32(qc=5)
REM 
CELL 1.54180    3.53362    7.61256    9.22470  143.44731   90.00000   90.00000
LATT -1
SFAC Li O  S  Fe 
Li     1  0.1233490000000 -0.2577120000000 -0.2469050000000 1.0  -0.02
Li     1  0.1233490000000  0.2577120000000  0.2469050000000 1.0  -0.02
O      2 -0.3779850000000  0.1682000000000  0.2612420000000 1.0   0.40
O      2 -0.3779850000000 -0.1682000000000 -0.2612420000000 1.0   0.40
O      2  0.6192680000000  0.5000000000000 -0.0000000000000 1.0   0.29
S      3  0.1193750000000 -0.0000000000000  0.5000000000000 1.0   0.23
Fe     4  0.6236490000000 -0.0413760000000  0.2846980000000 1.0   3.51
Fe     4  0.6236490000000  0.0413760000000 -0.2846980000000 1.0   3.51
Fe     4  0.1195840000000  0.5000000000000 -0.0000000000000 1.0   2.66
END
