TITL LFSO-LiFeSO-200909-064028-ac5352 0.0606 46.349080 -1.80533628E+003 0.792898 0.913493 4 (Pmm2) n - 1
REM
REM Run started: Wed, 09 Sep 2020 06:46:05 +0100 in /lustre/scratch/uccabz1/launch_tmp/launcher_2020-09-09-05-40-26-540435
REM CASTEP 20.1 from code version af48c487+ pr-geom-scf-spinfix Tue Jun 2 15:39:59 2020 +0100
REM Functional Perdew Burke Ernzerhof Relativity Koelling-Harmon Dispersion off
REM Cut-off 340.0000 eV Grid scale 1.7500 Gmax 16.5316 1/A FBSC none
REM MP grid 6 5 3 Offset 0.000 0.000 0.000 No. kpts 18 Spacing 0.07
REM Total runtime: 362.14 s
REM Overall efficiency: 75.6 %
REM
REM
REM
REM compiler GCC version 4.9.2
REM options -cpp -iprefix /lustre/shared/ucl/apps/gcc/4.9.2/bin/../lib/gcc/x86_64-unknown-linux-gnu/4.9.2/ -mtune=corei7 -march=x86-64 -g -Og
REM COMMAND_LINE
REM seed 1254795961 531664867 -2074666111 -857797780 1882338259 1202140707 -1197973935 -1295355050 2097231976 -780369242 1773318150 344543426
REM
REM S 3|1.8|5|6|7|30:31:32(qc=5)
REM O 2|1.5|12|13|15|20:21(qc=5)
REM Li 1|1.3|8|9|10|10U:20(qc=5)
REM Fe 3|2.2|2.0|1.0|8|9|10|40:41:32(qc=5)
REM 
CELL 1.54180    2.68623    2.93198    5.88488   90.00000   90.00000   90.00000
LATT -1
SFAC Li O  S  Fe 
Li     1  0.5000000000000 -0.5000000000000  0.0475130000000 1.0   0.00
O      2  0.0000000000000  0.0000000000000 -0.0782120000000 1.0   0.04
S      3  0.0000000000000  0.5000000000000 -0.5132630000000 1.0  -0.03
Fe     4  0.5000000000000  0.0000000000000 -0.3162260000000 1.0   0.78
END
