TITL LFSO-Li3Fe3S5O-201001-231311-0735ee -0.0266 182.196501 -5.14858001E+003 -2.73626 3.09434 12 (P3) n - 1
REM
REM Run started: Fri, 02 Oct 2020 00:13:10 +0100 in /lustre/scratch/uccabz1/launch_tmp/launcher_2020-10-01-22-13-09-962895
REM CASTEP 20.1 from code version af48c487+ pr-geom-scf-spinfix Tue Jun 2 15:39:59 2020 +0100
REM Functional Perdew Burke Ernzerhof Relativity Koelling-Harmon Dispersion off
REM Cut-off 340.0000 eV Grid scale 1.7500 Gmax 16.5316 1/A FBSC none
REM MP grid 3 3 3 Offset 0.000 0.000 0.000 No. kpts 8 Spacing 0.07
REM Total runtime: 3807.3 s
REM Overall efficiency: 84.7143 %
REM
REM
REM
REM compiler GCC version 4.9.2
REM options -cpp -iprefix /lustre/shared/ucl/apps/gcc/4.9.2/bin/../lib/gcc/x86_64-unknown-linux-gnu/4.9.2/ -mtune=corei7 -march=x86-64 -g -Og
REM COMMAND_LINE
REM seed -1187292398 78952595 1800840306 -448711234 -2071006107 28845289 -1364065531 948625146 768491760 -290406778 -26331738 -2113461203
REM
REM S 3|1.8|5|6|7|30:31:32(qc=5)
REM O 2|1.5|12|13|15|20:21(qc=5)
REM Li 1|1.3|8|9|10|10U:20(qc=5)
REM Fe 3|2.2|2.0|1.0|8|9|10|40:41:32(qc=5)
REM 
CELL 1.54180    5.73492    5.73492    6.39667   90.00000   90.00000  120.00000
LATT -1
SFAC Li O  S  Fe 
Li     1  0.3864960000000  0.0157540000000  0.3473510000000 1.0   0.01
Li     1  0.6292580000000 -0.3864960000000  0.3473510000000 1.0   0.01
Li     1 -0.0157540000000 -0.6292580000000  0.3473510000000 1.0   0.01
O      2 -0.3333330000000  0.3333330000000  0.4675260000000 1.0   0.01
S      3  0.3237910000000  0.3128250000000  0.0647070000000 1.0   0.01
S      3 -0.0109660000000 -0.3237910000000  0.0647070000000 1.0   0.01
S      3 -0.3128250000000  0.0109660000000  0.0647070000000 1.0   0.01
S      3  0.3333330000000 -0.3333330000000 -0.3622700000000 1.0  -0.08
S      3 -0.3333330000000  0.3333330000000 -0.2756200000000 1.0   0.04
Fe     4  0.3346450000000 -0.0269230000000 -0.1150980000000 1.0  -0.92
Fe     4 -0.3615680000000 -0.3346450000000 -0.1150980000000 1.0  -0.92
Fe     4  0.0269230000000  0.3615680000000 -0.1150980000000 1.0  -0.92
END
