TITL LFSO-Li3Fe3S4O2-201002-135417-fb13f1 -0.0134 202.847072 -5.27968639E+003 -2.69358 2.99456 12 (R3) n - 1
REM
REM Run started: Fri, 02 Oct 2020 16:01:23 +0100 in /lustre/scratch/uccabz1/launch_tmp/launcher_2020-10-02-12-54-15-871297
REM CASTEP 20.1 from code version af48c487+ pr-geom-scf-spinfix Tue Jun 2 15:39:59 2020 +0100
REM Functional Perdew Burke Ernzerhof Relativity Koelling-Harmon Dispersion off
REM Cut-off 340.0000 eV Grid scale 1.7500 Gmax 16.5316 1/A FBSC none
REM MP grid 3 3 3 Offset 0.000 0.000 0.000 No. kpts 6 Spacing 0.07
REM Total runtime: 7704.44 s
REM Overall efficiency: 94.625 %
REM
REM
REM
REM compiler GCC version 4.9.2
REM options -cpp -iprefix /lustre/shared/ucl/apps/gcc/4.9.2/bin/../lib/gcc/x86_64-unknown-linux-gnu/4.9.2/ -mtune=corei7 -march=x86-64 -g -Og
REM COMMAND_LINE
REM seed 25092970 -1154366212 -40432487 -401071994 741543045 -1534127333 197994945 -761815173 2002926056 1636756465 -1132162240 -557163759
REM
REM S 3|1.8|5|6|7|30:31:32(qc=5)
REM O 2|1.5|12|13|15|20:21(qc=5)
REM Li 1|1.3|8|9|10|10U:20(qc=5)
REM Fe 3|2.2|2.0|1.0|8|9|10|40:41:32(qc=5)
REM 
CELL 1.54180    6.52287    6.52287    6.66994   60.72670   60.72670   60.00000
LATT -1
SFAC Li O  S  Fe 
Li     1  0.5086660000000  0.3950310000000  0.2489020000000 1.0   0.01
Li     1 -0.1526000000000  0.5086660000000  0.2489020000000 1.0   0.01
Li     1  0.3950310000000 -0.1526000000000  0.2489020000000 1.0   0.01
O      2  0.4830900000000  0.4830900000000 -0.4492700000000 1.0  -0.04
O      2 -0.3604240000000 -0.3604240000000  0.0812720000000 1.0  -0.03
S      3 -0.0752210000000 -0.6007880000000 -0.2476660000000 1.0  -0.08
S      3 -0.0763240000000 -0.0752210000000 -0.2476660000000 1.0  -0.08
S      3 -0.6007880000000 -0.0763240000000 -0.2476660000000 1.0  -0.08
S      3  0.3082940000000  0.3082940000000  0.0751190000000 1.0  -0.02
Fe     4  0.2778820000000  0.2761460000000 -0.2329560000000 1.0  -0.80
Fe     4 -0.3210730000000  0.2778820000000 -0.2329560000000 1.0  -0.80
Fe     4  0.2761460000000 -0.3210730000000 -0.2329560000000 1.0  -0.80
END
