TITL LFSO-Li4Fe2S3O-200911-031606-48f1b9 0.0437 300.041644 -3.87352717E+003 6.76150 6.95265 10 (F222) n - 1
REM
REM Run started: Fri, 11 Sep 2020 07:43:05 +0100 in /lustre/scratch/uccabz1/launch_tmp/launcher_2020-09-11-02-16-05-358846
REM CASTEP 20.1 from code version af48c487+ pr-geom-scf-spinfix Tue Jun 2 15:39:59 2020 +0100
REM Functional Perdew Burke Ernzerhof Relativity Koelling-Harmon Dispersion off
REM Cut-off 340.0000 eV Grid scale 1.7500 Gmax 16.5316 1/A FBSC none
REM MP grid 3 3 4 Offset 0.000 0.000 0.000 No. kpts 12 Spacing 0.07
REM Total runtime: 16134.5 s
REM Overall efficiency: 96.3636 %
REM
REM
REM
REM compiler GCC version 4.9.2
REM options -cpp -iprefix /lustre/shared/ucl/apps/gcc/4.9.2/bin/../lib/gcc/x86_64-unknown-linux-gnu/4.9.2/ -mtune=corei7 -march=x86-64 -g -Og
REM COMMAND_LINE
REM seed 163521039 1395188721 2332922 575125127 494453426 968076533 -564397142 -1170330199 590114863 -22221058 -1990956252 -473711044
REM
REM S 3|1.8|5|6|7|30:31:32(qc=5)
REM O 2|1.5|12|13|15|20:21(qc=5)
REM Li 1|1.3|8|9|10|10U:20(qc=5)
REM Fe 3|2.2|2.0|1.0|8|9|10|40:41:32(qc=5)
REM 
CELL 1.54180    8.52251    8.52251    6.96240  121.54470  121.54470   98.34947
LATT -1
SFAC Li O  S  Fe 
Li     1 -0.0314830000000  0.1831760000000 -0.0623270000000 1.0  -0.04
Li     1 -0.0308440000000 -0.2455030000000 -0.0623270000000 1.0  -0.04
Li     1  0.2455030000000  0.0308440000000  0.0623270000000 1.0  -0.04
Li     1 -0.1831760000000  0.0314830000000  0.0623270000000 1.0  -0.04
O      2 -0.0000000000000  0.0000000000000  0.0000000000000 1.0   0.03
S      3  0.2779540000000 -0.2779540000000  0.0000000000000 1.0   0.20
S      3 -0.2779540000000  0.2779540000000  0.0000000000000 1.0   0.20
S      3 -0.2500000000000 -0.7500000000000 -0.5000000000000 1.0   0.27
Fe     4  0.5520540000000  0.0520540000000 -0.5000000000000 1.0   3.12
Fe     4 -0.0520540000000  0.4479460000000  0.5000000000000 1.0   3.12
END
