TITL LFSO-Li4Fe2S4O-200910-185220-98ec5a -0.0223 373.066411 -8.36097596E+003 14.8487 15.0358 22 (Fdd2) n - 1
REM
REM Run started: Fri, 11 Sep 2020 22:24:37 +0100 in /lustre/scratch/uccabz1/launch_tmp/launcher_2020-09-10-17-52-18-190199
REM CASTEP 20.1 from code version af48c487+ pr-geom-scf-spinfix Tue Jun 2 15:39:59 2020 +0100
REM Functional Perdew Burke Ernzerhof Relativity Koelling-Harmon Dispersion off
REM Cut-off 340.0000 eV Grid scale 1.7500 Gmax 16.5316 1/A FBSC none
REM MP grid 3 3 4 Offset 0.000 0.000 0.000 No. kpts 12 Spacing 0.07
REM Total runtime: 112474 s
REM Overall efficiency: 98.8333 %
REM
REM
REM
REM compiler GCC version 4.9.2
REM options -cpp -iprefix /lustre/shared/ucl/apps/gcc/4.9.2/bin/../lib/gcc/x86_64-unknown-linux-gnu/4.9.2/ -mtune=corei7 -march=x86-64 -g -Og
REM COMMAND_LINE
REM seed -2075435113 1684092969 -1065777780 1168164442 512201644 -1718644553 1329545230 -2110287284 -1711722565 -231334334 -1831520703 -90321972
REM
REM S 3|1.8|5|6|7|30:31:32(qc=5)
REM O 2|1.5|12|13|15|20:21(qc=5)
REM Li 1|1.3|8|9|10|10U:20(qc=5)
REM Fe 3|2.2|2.0|1.0|8|9|10|40:41:32(qc=5)
REM 
CELL 1.54180   10.20713   10.20713    7.10700  120.12619  120.12619  107.52174
LATT -1
SFAC Li O  S  Fe 
Li     1  0.3163990000000  0.3648650000000  0.3924270000000 1.0   0.01
Li     1 -0.0275620000000 -0.0760280000000 -0.3924270000000 1.0   0.01
Li     1  0.1148650000000  0.5663990000000 -0.1075730000000 1.0   0.01
Li     1 -0.3260280000000  0.2224380000000  0.1075730000000 1.0   0.01
Li     1  0.4904420000000 -0.3602700000000  0.2832390000000 1.0   0.04
Li     1 -0.6435090000000  0.2072030000000 -0.2832390000000 1.0   0.04
Li     1  0.3897300000000 -0.2595580000000 -0.2167610000000 1.0   0.04
Li     1 -0.0427970000000 -0.3935090000000  0.2167610000000 1.0   0.04
O      2  0.0403980000000  0.0403980000000  0.0000000000000 1.0   0.27
O      2 -0.2096020000000  0.2903980000000  0.5000000000000 1.0   0.27
S      3  0.3025700000000 -0.0404720000000  0.2643850000000 1.0   0.14
S      3 -0.3048570000000  0.0381850000000 -0.2643850000000 1.0   0.14
S      3  0.7095280000000  0.5525700000000  0.7643850000000 1.0   0.14
S      3 -0.2118150000000 -0.0548570000000 -0.7643850000000 1.0   0.14
S      3  0.2515530000000  0.4481250000000 -0.2957050000000 1.0   0.22
S      3 -0.2561690000000 -0.4527420000000  0.2957050000000 1.0   0.22
S      3  0.1981250000000 -0.4984470000000  0.2042950000000 1.0   0.22
S      3  0.2972580000000 -0.0061690000000 -0.2042950000000 1.0   0.22
Fe     4 -0.1595230000000  0.1840500000000 -0.3533520000000 1.0   3.17
Fe     4  0.5374020000000  0.1938290000000  0.3533520000000 1.0   3.17
Fe     4 -0.0659500000000  0.0904770000000  0.1466480000000 1.0   3.17
Fe     4 -0.0561710000000 -0.2125980000000 -0.1466480000000 1.0   3.17
END
