TITL LFSO-Li2Fe3SO3-200912-155347-4f5fc5 0.0169 235.255121 -9.21661347E+003 -17.9918 18.7953 18 (R3) n - 1
REM
REM Run started: Sun, 13 Sep 2020 08:04:08 +0100 in /lustre/scratch/uccabz1/launch_tmp/launcher_2020-09-12-14-53-45-731440
REM CASTEP 20.1 from code version af48c487+ pr-geom-scf-spinfix Tue Jun 2 15:39:59 2020 +0100
REM Functional Perdew Burke Ernzerhof Relativity Koelling-Harmon Dispersion off
REM Cut-off 340.0000 eV Grid scale 1.7500 Gmax 16.5316 1/A FBSC none
REM MP grid 4 4 4 Offset 0.000 0.000 0.000 No. kpts 12 Spacing 0.07
REM Total runtime: 59746.9 s
REM Overall efficiency: 98.6364 %
REM
REM
REM
REM compiler GCC version 4.9.2
REM options -cpp -iprefix /lustre/shared/ucl/apps/gcc/4.9.2/bin/../lib/gcc/x86_64-unknown-linux-gnu/4.9.2/ -mtune=corei7 -march=x86-64 -g -Og
REM COMMAND_LINE
REM seed 839260512 -1068730965 1271488880 -1561995664 -854387751 -1644661495 1591501371 721793050 1314530926 -925419848 442335474 -1381868506
REM
REM S 3|1.8|5|6|7|30:31:32(qc=5)
REM O 2|1.5|12|13|15|20:21(qc=5)
REM Li 1|1.3|8|9|10|10U:20(qc=5)
REM Fe 3|2.2|2.0|1.0|8|9|10|40:41:32(qc=5)
REM 
CELL 1.54180    9.97764    9.97764    9.97764   31.10821   31.10821   31.10821
LATT -1
SFAC Li O  S  Fe 
Li     1  0.4635310000000  0.1881030000000 -0.1777280000000 1.0  -0.00
Li     1 -0.1777280000000  0.4635310000000  0.1881030000000 1.0  -0.00
Li     1  0.1881030000000 -0.1777280000000  0.4635310000000 1.0  -0.00
Li     1 -0.1321170000000 -0.1321170000000 -0.1321170000000 1.0   0.05
O      2 -0.3628050000000 -0.0493140000000  0.3458670000000 1.0  -0.21
O      2  0.3458670000000 -0.3628050000000 -0.0493140000000 1.0  -0.21
O      2 -0.0493140000000  0.3458670000000 -0.3628050000000 1.0  -0.21
O      2 -0.1450420000000  0.1734640000000 -0.4739220000000 1.0  -0.22
O      2 -0.4739220000000 -0.1450420000000  0.1734640000000 1.0  -0.22
O      2  0.1734640000000 -0.4739220000000 -0.1450420000000 1.0  -0.22
S      3  0.0615720000000  0.0615720000000  0.0615720000000 1.0   0.09
S      3  0.3945500000000  0.3945500000000  0.3945500000000 1.0   0.12
Fe     4  0.3896700000000 -0.0259520000000 -0.3155910000000 1.0  -2.51
Fe     4 -0.3155910000000  0.3896700000000 -0.0259520000000 1.0  -2.51
Fe     4 -0.0259520000000 -0.3155910000000  0.3896700000000 1.0  -2.51
Fe     4  0.5010450000000 -0.0523080000000  0.2920120000000 1.0  -3.15
Fe     4  0.2920120000000  0.5010450000000 -0.0523080000000 1.0  -3.15
Fe     4 -0.0523080000000  0.2920120000000  0.5010450000000 1.0  -3.15
END
