TITL LFSO-Li6FeS2O2-200920-192533-5b6c6c 0.0146 153.647172 -3.54291508E+003 -2.00149 2.47630 11 (P3) n - 1
REM
REM Run started: Sun, 20 Sep 2020 20:40:07 +0100 in /lustre/scratch/uccabz1/launch_tmp/launcher_2020-09-20-18-25-31-742043
REM CASTEP 20.1 from code version af48c487+ pr-geom-scf-spinfix Tue Jun 2 15:39:59 2020 +0100
REM Functional Perdew Burke Ernzerhof Relativity Koelling-Harmon Dispersion off
REM Cut-off 340.0000 eV Grid scale 1.7500 Gmax 16.5316 1/A FBSC none
REM MP grid 3 3 4 Offset 0.000 0.000 0.000 No. kpts 10 Spacing 0.07
REM Total runtime: 4511.61 s
REM Overall efficiency: 82 %
REM
REM
REM
REM compiler GCC version 4.9.2
REM options -cpp -iprefix /lustre/shared/ucl/apps/gcc/4.9.2/bin/../lib/gcc/x86_64-unknown-linux-gnu/4.9.2/ -mtune=corei7 -march=x86-64 -g -Og
REM COMMAND_LINE
REM seed -1904067024 -60465145 596908895 2090905609 48589882 -2073718219 2118328824 -2033054977 428045696 -869829612 -1188715436 -152273434
REM
REM S 3|1.8|5|6|7|30:31:32(qc=5)
REM O 2|1.5|12|13|15|20:21(qc=5)
REM Li 1|1.3|8|9|10|10U:20(qc=5)
REM Fe 3|2.2|2.0|1.0|8|9|10|40:41:32(qc=5)
REM 
CELL 1.54180    6.68431    6.68431    3.97083   90.00000   90.00000  120.00000
LATT -1
SFAC Li O  S  Fe 
Li     1  0.3848200000000  0.3353710000000  0.0318790000000 1.0   0.03
Li     1 -0.0494490000000 -0.3848200000000  0.0318790000000 1.0   0.03
Li     1 -0.3353710000000  0.0494490000000  0.0318790000000 1.0   0.03
Li     1 -0.3280500000000 -0.2429300000000  0.5617270000000 1.0   0.07
Li     1  0.0851200000000  0.3280500000000  0.5617270000000 1.0   0.07
Li     1  0.2429300000000 -0.0851200000000  0.5617270000000 1.0   0.07
O      2  0.0000000000000 -0.0000000000000 -0.2470180000000 1.0  -0.00
O      2 -0.3333330000000  0.3333330000000 -0.0095370000000 1.0  -0.06
S      3  0.0000000000000 -0.0000000000000  0.1817660000000 1.0  -0.01
S      3  0.3333330000000 -0.3333330000000 -0.0603260000000 1.0  -0.01
Fe     4 -0.3333330000000  0.3333330000000  0.4911440000000 1.0  -2.22
END
