TITL LFSO-Li4Fe2S3O2-200911-084623-f3c806 0.4847 236.122680 -4.31495019E+003 8.84614 8.89726 11 (Cm) n - 1
REM
REM Run started: Fri, 11 Sep 2020 14:53:49 +0100 in /lustre/scratch/uccabz1/launch_tmp/launcher_2020-09-11-13-20-59-950058
REM CASTEP 20.1 from code version af48c487+ pr-geom-scf-spinfix Tue Jun 2 15:39:59 2020 +0100
REM Functional Perdew Burke Ernzerhof Relativity Koelling-Harmon Dispersion off
REM Cut-off 340.0000 eV Grid scale 1.7500 Gmax 16.5316 1/A FBSC none
REM MP grid 5 3 3 Offset 0.000 0.000 0.000 No. kpts 16 Spacing 0.07
REM Total runtime: 19681.2 s
REM Overall efficiency: 97.2727 %
REM
REM
REM
REM compiler GCC version 4.9.2
REM options -cpp -iprefix /lustre/shared/ucl/apps/gcc/4.9.2/bin/../lib/gcc/x86_64-unknown-linux-gnu/4.9.2/ -mtune=corei7 -march=x86-64 -g -Og
REM COMMAND_LINE
REM seed -629252013 -1268966841 -641831105 326829181 -843847294 1671877343 -111230286 2041222252 -853265501 -1147358855 -738003663 -906497184
REM
REM S 3|1.8|5|6|7|30:31:32(qc=5)
REM O 2|1.5|12|13|15|20:21(qc=5)
REM Li 1|1.3|8|9|10|10U:20(qc=5)
REM Fe 3|2.2|2.0|1.0|8|9|10|40:41:32(qc=5)
REM 
CELL 1.54180    3.51221   12.28822   12.28822  152.14063   94.19320   94.19320
LATT -1
SFAC Li O  S  Fe 
Li     1  0.3193450000000 -0.0735240000000 -0.1899710000000 1.0  -0.01
Li     1  0.3193450000000 -0.1899710000000 -0.0735240000000 1.0  -0.01
Li     1 -0.0460470000000  0.2774140000000  0.0056100000000 1.0  -0.00
Li     1 -0.0460470000000  0.0056100000000  0.2774140000000 1.0  -0.00
O      2 -0.5430650000000  0.0501030000000  0.2447750000000 1.0   0.40
O      2 -0.5430650000000  0.2447750000000  0.0501030000000 1.0   0.40
S      3  0.1854750000000  0.4516810000000 -0.2637370000000 1.0   0.32
S      3  0.1854750000000 -0.2637370000000  0.4516810000000 1.0   0.32
S      3 -0.2844410000000 -0.3369820000000 -0.3369820000000 1.0   0.26
Fe     4 -0.3801330000000 -0.4475340000000  0.3752020000000 1.0   3.58
Fe     4 -0.3801330000000  0.3752020000000 -0.4475340000000 1.0   3.58
END
