TITL LFSO-Li2Fe3S3O-200912-204430-94c42d 0.0125 311.250067 -8.67946462E+003 18.2236 18.7790 18 (P2) n - 1
REM
REM Run started: Sun, 13 Sep 2020 14:40:32 +0100 in /lustre/scratch/uccabz1/launch_tmp/launcher_2020-09-12-19-44-29-116965
REM CASTEP 20.1 from code version af48c487+ pr-geom-scf-spinfix Tue Jun 2 15:39:59 2020 +0100
REM Functional Perdew Burke Ernzerhof Relativity Koelling-Harmon Dispersion off
REM Cut-off 340.0000 eV Grid scale 1.7500 Gmax 16.5316 1/A FBSC none
REM MP grid 3 2 3 Offset 0.000 0.000 0.000 No. kpts 5 Spacing 0.07
REM Total runtime: 64874 s
REM Overall efficiency: 74.8182 %
REM
REM
REM
REM compiler GCC version 4.9.2
REM options -cpp -iprefix /lustre/shared/ucl/apps/gcc/4.9.2/bin/../lib/gcc/x86_64-unknown-linux-gnu/4.9.2/ -mtune=corei7 -march=x86-64 -g -Og
REM COMMAND_LINE
REM seed -1052657540 -1769651100 -1519747614 1159902343 -506536491 -487276362 1038333135 -269419126 1786942003 973020166 -231178051 -1891784328
REM
REM S 3|1.8|5|6|7|30:31:32(qc=5)
REM O 2|1.5|12|13|15|20:21(qc=5)
REM Li 1|1.3|8|9|10|10U:20(qc=5)
REM Fe 3|2.2|2.0|1.0|8|9|10|40:41:32(qc=5)
REM 
CELL 1.54180    8.24231    7.64954    6.22545   90.00000  127.53642   90.00000
LATT -1
SFAC Li O  S  Fe 
Li     1  0.3812950000000  0.1890970000000 -0.3575340000000 1.0   0.07
Li     1 -0.3812950000000  0.1890970000000  0.3575340000000 1.0   0.07
Li     1  0.3749400000000 -0.2151120000000 -0.4530840000000 1.0  -0.02
Li     1 -0.3749400000000 -0.2151120000000  0.4530840000000 1.0  -0.02
O      2  0.3267710000000 -0.2814850000000  0.2259870000000 1.0   0.24
O      2 -0.3267710000000 -0.2814850000000 -0.2259870000000 1.0   0.24
S      3 -0.2567310000000  0.2326540000000 -0.1439220000000 1.0   0.24
S      3  0.2567310000000  0.2326540000000  0.1439220000000 1.0   0.24
S      3  0.2256030000000 -0.0575860000000 -0.2901050000000 1.0   0.20
S      3 -0.2256030000000 -0.0575860000000  0.2901050000000 1.0   0.20
S      3 -0.2505540000000 -0.5158780000000  0.3895710000000 1.0   0.06
S      3  0.2505540000000 -0.5158780000000 -0.3895710000000 1.0   0.06
Fe     4  0.0732780000000  0.3965100000000 -0.2310920000000 1.0   2.76
Fe     4 -0.0732780000000  0.3965100000000  0.2310920000000 1.0   2.76
Fe     4 -0.3003910000000 -0.3056190000000  0.0861930000000 1.0   2.93
Fe     4  0.3003910000000 -0.3056190000000 -0.0861930000000 1.0   2.93
Fe     4 -0.2004860000000  0.5075060000000 -0.1982670000000 1.0   2.64
Fe     4  0.2004860000000  0.5075060000000  0.1982670000000 1.0   2.64
END
