TITL LFSO-Li3Fe3S2O4-200928-200412-4dc1dc 0.0913 404.394159 -1.10978014E+004 0.234535 16.0290 24 (Cm) n - 1
REM
REM Run started: Wed, 30 Sep 2020 23:56:30 +0100 in /lustre/scratch/uccabz1/launch_tmp/launcher_2020-09-30-21-56-54-703451
REM CASTEP 20.1 from code version af48c487+ pr-geom-scf-spinfix Tue Jun 2 15:39:59 2020 +0100
REM Functional Perdew Burke Ernzerhof Relativity Koelling-Harmon Dispersion off
REM Cut-off 340.0000 eV Grid scale 1.7500 Gmax 16.5316 1/A FBSC none
REM MP grid 3 3 2 Offset 0.000 0.000 0.000 No. kpts 9 Spacing 0.07
REM Total runtime: 175538 s
REM Overall efficiency: 97 %
REM
REM
REM
REM compiler GCC version 4.9.2
REM options -cpp -iprefix /lustre/shared/ucl/apps/gcc/4.9.2/bin/../lib/gcc/x86_64-unknown-linux-gnu/4.9.2/ -mtune=corei7 -march=x86-64 -g -Og
REM COMMAND_LINE
REM seed -899223967 -70549487 -918494321 -595883990 1240562424 821716658 206839876 1736229247 84769408 -573203701 860539317 38520829
REM
REM S 3|1.8|5|6|7|30:31:32(qc=5)
REM O 2|1.5|12|13|15|20:21(qc=5)
REM Li 1|1.3|8|9|10|10U:20(qc=5)
REM Fe 3|2.2|2.0|1.0|8|9|10|40:41:32(qc=5)
REM 
CELL 1.54180    7.03461    7.51616    9.50391   89.38569   68.27884   62.09769
LATT -1
SFAC Li O  S  Fe 
Li     1 -0.0651670000000  0.0964760000000 -0.4811330000000 1.0  -0.03
Li     1  0.4498240000000  0.0964760000000 -0.4811330000000 1.0  -0.03
Li     1  0.3964130000000 -0.0784080000000 -0.2072230000000 1.0   0.06
Li     1 -0.1107820000000 -0.0784080000000 -0.2072230000000 1.0   0.06
Li     1  0.2175750000000 -0.2245650000000  0.2520890000000 1.0   0.02
Li     1 -0.2450990000000 -0.2245650000000  0.2520890000000 1.0   0.02
O      2 -0.0883690000000  0.3208560000000  0.4100850000000 1.0   0.02
O      2  0.3574280000000  0.3208560000000  0.4100850000000 1.0   0.02
O      2 -0.2490880000000  0.1747820000000 -0.2671440000000 1.0   0.09
O      2  0.3414510000000  0.1747820000000 -0.2671440000000 1.0   0.09
O      2  0.5544780000000 -0.3819210000000 -0.2746600000000 1.0  -0.03
O      2  0.1021030000000 -0.3819210000000 -0.2746600000000 1.0  -0.03
O      2  0.0984080000000 -0.1854540000000  0.4572510000000 1.0  -0.38
O      2 -0.3702060000000 -0.1854540000000  0.4572510000000 1.0  -0.38
S      3 -0.2718640000000 -0.0143610000000  0.0706890000000 1.0   0.10
S      3  0.2155360000000 -0.0143610000000  0.0706890000000 1.0   0.10
S      3  0.4857190000000 -0.5309930000000  0.0507030000000 1.0  -0.05
S      3 -0.0054290000000 -0.5309930000000  0.0507030000000 1.0  -0.05
Fe     4  0.4409260000000  0.2672920000000  0.2075130000000 1.0   2.53
Fe     4  0.0842700000000  0.2672920000000  0.2075130000000 1.0   2.53
Fe     4  0.2310230000000  0.4191750000000 -0.1825540000000 1.0   1.07
Fe     4 -0.4676440000000  0.4191750000000 -0.1825540000000 1.0   1.07
Fe     4  0.1498850000000 -0.4180590000000 -0.4786940000000 1.0  -3.29
Fe     4 -0.2531320000000 -0.4180590000000 -0.4786940000000 1.0  -3.29
END
