TITL LFSO-Li6FeS2O2-200920-220523-1dbdfa -0.0194 285.598430 -3.54463773E+003 -3.99049 4.11867 11 (Cm) n - 1
REM
REM Run started: Mon, 21 Sep 2020 04:20:16 +0100 in /lustre/scratch/uccabz1/launch_tmp/launcher_2020-09-20-21-05-21-881971
REM CASTEP 20.1 from code version af48c487+ pr-geom-scf-spinfix Tue Jun 2 15:39:59 2020 +0100
REM Functional Perdew Burke Ernzerhof Relativity Koelling-Harmon Dispersion off
REM Cut-off 340.0000 eV Grid scale 1.7500 Gmax 16.5316 1/A FBSC none
REM MP grid 3 3 3 Offset 0.000 0.000 0.000 No. kpts 10 Spacing 0.07
REM Total runtime: 22708.6 s
REM Overall efficiency: 73.5833 %
REM
REM
REM
REM compiler GCC version 4.9.2
REM options -cpp -iprefix /lustre/shared/ucl/apps/gcc/4.9.2/bin/../lib/gcc/x86_64-unknown-linux-gnu/4.9.2/ -mtune=corei7 -march=x86-64 -g -Og
REM COMMAND_LINE
REM seed 1494224271 111120690 -744267365 -878988194 -35337947 -519792384 1550899976 1124042618 -1890587169 1435673768 -843781809 -1405179059
REM
REM S 3|1.8|5|6|7|30:31:32(qc=5)
REM O 2|1.5|12|13|15|20:21(qc=5)
REM Li 1|1.3|8|9|10|10U:20(qc=5)
REM Fe 3|2.2|2.0|1.0|8|9|10|40:41:32(qc=5)
REM 
CELL 1.54180    6.60303    7.00061    7.00061  118.04808   89.98228   89.98228
LATT -1
SFAC Li O  S  Fe 
Li     1 -0.3736410000000 -0.0619640000000 -0.5398430000000 1.0   0.00
Li     1 -0.3736410000000 -0.5398430000000 -0.0619640000000 1.0   0.00
Li     1 -0.0973280000000  0.1846710000000 -0.2841320000000 1.0   0.01
Li     1 -0.0973280000000 -0.2841320000000  0.1846710000000 1.0   0.01
Li     1  0.1780570000000  0.4591930000000 -0.0631480000000 1.0  -0.00
Li     1  0.1780570000000 -0.0631480000000  0.4591930000000 1.0  -0.00
O      2 -0.0980300000000 -0.0586200000000  0.4564220000000 1.0  -0.08
O      2 -0.0980300000000  0.4564220000000 -0.0586200000000 1.0  -0.08
S      3  0.4000190000000  0.1378590000000 -0.2264680000000 1.0  -0.11
S      3  0.4000190000000 -0.2264680000000  0.1378590000000 1.0  -0.11
Fe     4  0.3885820000000 -0.0344750000000 -0.0344750000000 1.0  -3.62
END
