TITL LFSO-Li4Fe2S2O3-200911-071843-2c7803 -0.0115 290.708991 -8.89455910E+003 8.25331 8.90359 22 (Pba2) n - 1
REM
REM Run started: Fri, 11 Sep 2020 13:45:01 +0100 in /lustre/scratch/uccabz1/launch_tmp/launcher_2020-09-11-06-18-42-274003
REM CASTEP 20.1 from code version af48c487+ pr-geom-scf-spinfix Tue Jun 2 15:39:59 2020 +0100
REM Functional Perdew Burke Ernzerhof Relativity Koelling-Harmon Dispersion off
REM Cut-off 340.0000 eV Grid scale 1.7500 Gmax 16.5316 1/A FBSC none
REM MP grid 3 3 2 Offset 0.000 0.000 0.000 No. kpts 4 Spacing 0.07
REM Total runtime: 23243.7 s
REM Overall efficiency: 96.5556 %
REM
REM
REM
REM compiler GCC version 4.9.2
REM options -cpp -iprefix /lustre/shared/ucl/apps/gcc/4.9.2/bin/../lib/gcc/x86_64-unknown-linux-gnu/4.9.2/ -mtune=corei7 -march=x86-64 -g -Og
REM COMMAND_LINE
REM seed 1895689207 1687041112 159655547 -860557154 1899842016 903744306 -632783643 -592420126 -866276964 -964297534 -1137025758 -1307814633
REM
REM S 3|1.8|5|6|7|30:31:32(qc=5)
REM O 2|1.5|12|13|15|20:21(qc=5)
REM Li 1|1.3|8|9|10|10U:20(qc=5)
REM Fe 3|2.2|2.0|1.0|8|9|10|40:41:32(qc=5)
REM 
CELL 1.54180    7.04317    5.07084    8.13974   90.00000   90.00000   90.00000
LATT -1
SFAC Li O  S  Fe 
Li     1 -0.0140290000000  0.2790520000000 -0.3816120000000 1.0  -0.03
Li     1  0.0140290000000 -0.2790520000000 -0.3816120000000 1.0  -0.03
Li     1 -0.4859710000000 -0.2209480000000 -0.3816120000000 1.0  -0.03
Li     1  0.4859710000000  0.2209480000000 -0.3816120000000 1.0  -0.03
Li     1  0.2928170000000  0.1246480000000  0.0526120000000 1.0  -0.07
Li     1 -0.2928170000000 -0.1246480000000  0.0526120000000 1.0  -0.07
Li     1  0.2071830000000 -0.3753520000000  0.0526120000000 1.0  -0.07
Li     1 -0.2071830000000  0.3753520000000  0.0526120000000 1.0  -0.07
O      2  0.1743930000000 -0.1132860000000  0.2311280000000 1.0   0.06
O      2 -0.1743930000000  0.1132860000000  0.2311280000000 1.0   0.06
O      2  0.3256070000000  0.3867140000000  0.2311280000000 1.0   0.06
O      2 -0.3256070000000 -0.3867140000000  0.2311280000000 1.0   0.06
O      2 -0.5000000000000  0.0000000000000  0.4239160000000 1.0   0.12
O      2  0.0000000000000 -0.5000000000000  0.4239160000000 1.0   0.12
S      3  0.2517100000000 -0.0880350000000 -0.2098960000000 1.0   0.00
S      3 -0.2517100000000  0.0880350000000 -0.2098960000000 1.0   0.00
S      3  0.2482900000000 -0.5880350000000 -0.2098960000000 1.0   0.00
S      3 -0.2482900000000  0.5880350000000 -0.2098960000000 1.0   0.00
Fe     4 -0.4213610000000  0.2685090000000  0.2898310000000 1.0   2.04
Fe     4  0.4213610000000 -0.2685090000000  0.2898310000000 1.0   2.04
Fe     4 -0.0786390000000 -0.2314910000000  0.2898310000000 1.0   2.04
Fe     4  0.0786390000000  0.2314910000000  0.2898310000000 1.0   2.04
END
