TITL LFSO-LiFe3S4O-200909-102641-13e138 0.0009 152.521982 -4.44395264E+003 -3.15377 9.62469 9 (P2) n - 1
REM
REM Run started: Wed, 09 Sep 2020 12:39:56 +0100 in /lustre/scratch/uccabz1/launch_tmp/launcher_2020-09-09-09-26-39-443018
REM CASTEP 20.1 from code version af48c487+ pr-geom-scf-spinfix Tue Jun 2 15:39:59 2020 +0100
REM Functional Perdew Burke Ernzerhof Relativity Koelling-Harmon Dispersion off
REM Cut-off 340.0000 eV Grid scale 1.7500 Gmax 16.5316 1/A FBSC none
REM MP grid 3 2 5 Offset 0.000 0.000 0.000 No. kpts 10 Spacing 0.07
REM Total runtime: 8256.67 s
REM Overall efficiency: 84.125 %
REM
REM
REM
REM compiler GCC version 4.9.2
REM options -cpp -iprefix /lustre/shared/ucl/apps/gcc/4.9.2/bin/../lib/gcc/x86_64-unknown-linux-gnu/4.9.2/ -mtune=corei7 -march=x86-64 -g -Og
REM COMMAND_LINE
REM seed -168978002 -496847722 -874326313 281366617 1969696263 2144583176 684335283 1290993861 805370365 -1417001376 1859276117 2006514981
REM
REM S 3|1.8|5|6|7|30:31:32(qc=5)
REM O 2|1.5|12|13|15|20:21(qc=5)
REM Li 1|1.3|8|9|10|10U:20(qc=5)
REM Fe 3|2.2|2.0|1.0|8|9|10|40:41:32(qc=5)
REM 
CELL 1.54180    5.84905    7.66528    3.51343  104.47684   90.00000   90.00000
LATT -1
SFAC Li O  S  Fe 
Li     1 -0.2312720000000 -0.5000000000000  0.0000000000000 1.0   0.02
O      2 -0.5500060000000  0.5000000000000  0.0000000000000 1.0  -0.30
S      3 -0.4167850000000  0.1415280000000  0.1519780000000 1.0   0.11
S      3 -0.4167850000000 -0.1415280000000 -0.1519780000000 1.0   0.11
S      3  0.0521940000000  0.2550940000000 -0.3475330000000 1.0  -0.03
S      3  0.0521940000000 -0.2550940000000  0.3475330000000 1.0  -0.03
Fe     4  0.2940120000000  0.3304340000000  0.2040610000000 1.0  -2.98
Fe     4  0.2940120000000 -0.3304340000000 -0.2040610000000 1.0  -2.98
Fe     4 -0.1693260000000  0.0000000000000  0.5000000000000 1.0   2.91
END
