TITL LFSO-LiFeSO-200921-200146-a4218e -0.0157 158.593712 -3.60724409E+003 8.34958 8.39593 8 (Immm) n - 1
REM
REM Run started: Mon, 21 Sep 2020 20:45:07 +0100 in /lustre/scratch/uccabz1/launch_tmp/launcher_2020-09-21-19-31-19-937759
REM CASTEP 20.1 from code version af48c487+ pr-geom-scf-spinfix Tue Jun 2 15:39:59 2020 +0100
REM Functional Perdew Burke Ernzerhof Relativity Koelling-Harmon Dispersion off
REM Cut-off 340.0000 eV Grid scale 1.7500 Gmax 16.5316 1/A FBSC none
REM MP grid 4 4 2 Offset 0.000 0.000 0.000 No. kpts 4 Spacing 0.07
REM Total runtime: 2214.77 s
REM Overall efficiency: 89.7778 %
REM
REM
REM
REM compiler GCC version 4.9.2
REM options -cpp -iprefix /lustre/shared/ucl/apps/gcc/4.9.2/bin/../lib/gcc/x86_64-unknown-linux-gnu/4.9.2/ -mtune=corei7 -march=x86-64 -g -Og
REM COMMAND_LINE
REM seed 2114073069 -1929766772 -2095346854 -662164326 1078829882 -1251718971 1970112814 -2115983737 143412571 1241371067 -272695270 -981432879
REM
REM S 3|1.8|5|6|7|30:31:32(qc=5)
REM O 2|1.5|12|13|15|20:21(qc=5)
REM Li 1|1.3|8|9|10|10U:20(qc=5)
REM Fe 3|2.2|2.0|1.0|8|9|10|40:41:32(qc=5)
REM 
CELL 1.54180    4.49779    4.08794    8.62546   90.00000   90.00000   89.99901
LATT -1
SFAC Li O  S  Fe 
Li     1  0.0000000000000  0.0000000000000  0.0000000000000 1.0  -0.03
Li     1  0.5000000000000  0.5000000000000  0.5000000000000 1.0  -0.03
O      2  0.5000000000000  0.0000000000000  0.0000000000000 1.0   0.42
O      2  0.0000000000000  0.5000000000000  0.5000000000000 1.0   0.42
S      3  0.5000000000000  0.0000000000000  0.5000000000000 1.0   0.30
S      3  0.0000000000000  0.5000000000000  0.0000000000000 1.0   0.30
Fe     4  0.5000000000000  0.5000000000000  0.0000000000000 1.0   3.48
Fe     4  0.0000000000000  0.0000000000000  0.5000000000000 1.0   3.48
END
