TITL LFSO-Li6FeS3O-200910-002709-b83239 0.2372 154.259139 -3.41282730E+003 3.96158 4.13102 11 (C2) n - 1
REM
REM Run started: Thu, 10 Sep 2020 03:41:17 +0100 in /lustre/scratch/uccabz1/launch_tmp/launcher_2020-09-09-23-27-07-940764
REM CASTEP 20.1 from code version af48c487+ pr-geom-scf-spinfix Tue Jun 2 15:39:59 2020 +0100
REM Functional Perdew Burke Ernzerhof Relativity Koelling-Harmon Dispersion off
REM Cut-off 340.0000 eV Grid scale 1.7500 Gmax 16.5316 1/A FBSC none
REM MP grid 5 3 3 Offset 0.000 0.000 0.000 No. kpts 16 Spacing 0.07
REM Total runtime: 13305.2 s
REM Overall efficiency: 96.6667 %
REM
REM
REM
REM compiler GCC version 4.9.2
REM options -cpp -iprefix /lustre/shared/ucl/apps/gcc/4.9.2/bin/../lib/gcc/x86_64-unknown-linux-gnu/4.9.2/ -mtune=corei7 -march=x86-64 -g -Og
REM COMMAND_LINE
REM seed -635452988 1511873585 -1842229906 1675991339 -1813239875 -2003841712 1471113223 -1579325175 -323214613 -1473850980 1781577177 -1582374239
REM
REM S 3|1.8|5|6|7|30:31:32(qc=5)
REM O 2|1.5|12|13|15|20:21(qc=5)
REM Li 1|1.3|8|9|10|10U:20(qc=5)
REM Fe 3|2.2|2.0|1.0|8|9|10|40:41:32(qc=5)
REM 
CELL 1.54180    3.74243    7.08356    7.08356   63.80215  109.96889  109.96889
LATT -1
SFAC Li O  S  Fe 
Li     1  0.3251860000000  0.4412270000000  0.2846060000000 1.0  -0.02
Li     1 -0.3251860000000 -0.2846060000000 -0.4412270000000 1.0  -0.02
Li     1  0.6144790000000  0.1600020000000  0.1574640000000 1.0  -0.08
Li     1 -0.6144790000000 -0.1574640000000 -0.1600020000000 1.0  -0.08
Li     1 -0.0967480000000  0.1434960000000  0.6214360000000 1.0   0.06
Li     1  0.0967480000000 -0.6214360000000 -0.1434960000000 1.0   0.06
O      2  0.0000000000000  0.0716480000000 -0.0716480000000 1.0   0.25
S      3  0.2076330000000  0.0466630000000 -0.5720680000000 1.0   0.11
S      3 -0.2076330000000  0.5720680000000 -0.0466630000000 1.0   0.11
S      3  0.0000000000000 -0.4746860000000  0.4746860000000 1.0   0.11
Fe     4  0.0000000000000 -0.1720320000000  0.1720320000000 1.0   3.45
END
