TITL LFSO-LiFe3S3O2-200909-153057-a91dde 0.0523 171.021985 -4.57660952E+003 6.11768 6.47009 9 (Cm) n - 1
REM
REM Run started: Wed, 09 Sep 2020 18:40:26 +0100 in /lustre/scratch/uccabz1/launch_tmp/launcher_2020-09-09-14-30-56-024351
REM CASTEP 20.1 from code version af48c487+ pr-geom-scf-spinfix Tue Jun 2 15:39:59 2020 +0100
REM Functional Perdew Burke Ernzerhof Relativity Koelling-Harmon Dispersion off
REM Cut-off 340.0000 eV Grid scale 1.7500 Gmax 16.5316 1/A FBSC none
REM MP grid 4 3 3 Offset 0.000 0.000 0.000 No. kpts 18 Spacing 0.07
REM Total runtime: 12956.7 s
REM Overall efficiency: 94.2222 %
REM
REM
REM
REM compiler GCC version 4.9.2
REM options -cpp -iprefix /lustre/shared/ucl/apps/gcc/4.9.2/bin/../lib/gcc/x86_64-unknown-linux-gnu/4.9.2/ -mtune=corei7 -march=x86-64 -g -Og
REM COMMAND_LINE
REM seed 1222637503 -1747246224 -1691642655 1007403357 -420179720 -35545327 2132994994 729335577 503848510 -1377568775 1010580867 -1027094625
REM
REM S 3|1.8|5|6|7|30:31:32(qc=5)
REM O 2|1.5|12|13|15|20:21(qc=5)
REM Li 1|1.3|8|9|10|10U:20(qc=5)
REM Fe 3|2.2|2.0|1.0|8|9|10|40:41:32(qc=5)
REM 
CELL 1.54180    5.94596    5.94596    6.98651  115.47192  129.90040   74.98675
LATT -1
SFAC Li O  S  Fe 
Li     1 -0.0339890000000 -0.0104310000000 -0.0444200000000 1.0  -0.02
O      2 -0.1987630000000 -0.2873910000000 -0.1302220000000 1.0   0.35
O      2  0.1571680000000  0.0685410000000 -0.1302220000000 1.0   0.35
S      3 -0.2849940000000  0.2422370000000  0.3994290000000 1.0  -0.01
S      3  0.1571920000000 -0.3155770000000  0.3994290000000 1.0  -0.01
S      3 -0.4810030000000  0.2921410000000 -0.1888620000000 1.0   0.04
Fe     4  0.1321330000000  0.0733950000000 -0.3762660000000 1.0   1.22
Fe     4 -0.4496610000000 -0.5083990000000 -0.3762660000000 1.0   1.22
Fe     4 -0.1885320000000 -0.5557650000000  0.2557030000000 1.0   2.99
END
