TITL LFSO-Li6FeSO3-200909-230850-db62ea -0.0433 140.711225 -3.68102688E+003 3.60006 3.80019 11 (Pm) n - 1
REM
REM Run started: Thu, 10 Sep 2020 01:02:22 +0100 in /lustre/scratch/uccabz1/launch_tmp/launcher_2020-09-09-22-08-47-898149
REM CASTEP 20.1 from code version af48c487+ pr-geom-scf-spinfix Tue Jun 2 15:39:59 2020 +0100
REM Functional Perdew Burke Ernzerhof Relativity Koelling-Harmon Dispersion off
REM Cut-off 340.0000 eV Grid scale 1.7500 Gmax 16.5316 1/A FBSC none
REM MP grid 5 2 3 Offset 0.000 0.000 0.000 No. kpts 8 Spacing 0.07
REM Total runtime: 7326.45 s
REM Overall efficiency: 88 %
REM
REM
REM
REM compiler GCC version 4.9.2
REM options -cpp -iprefix /lustre/shared/ucl/apps/gcc/4.9.2/bin/../lib/gcc/x86_64-unknown-linux-gnu/4.9.2/ -mtune=corei7 -march=x86-64 -g -Og
REM COMMAND_LINE
REM seed 936157462 1881748846 736973628 -11876957 -1169797116 704159760 1934212024 -2098000917 -1750734626 1664683392 1921986884 1509475338
REM
REM S 3|1.8|5|6|7|30:31:32(qc=5)
REM O 2|1.5|12|13|15|20:21(qc=5)
REM Li 1|1.3|8|9|10|10U:20(qc=5)
REM Fe 3|2.2|2.0|1.0|8|9|10|40:41:32(qc=5)
REM 
CELL 1.54180    2.98145    6.87561    6.86479   90.00000   90.74437   90.00000
LATT -1
SFAC Li O  S  Fe 
Li     1  0.0397710000000  0.3349810000000 -0.1016770000000 1.0   0.03
Li     1  0.0397710000000 -0.3349810000000 -0.1016770000000 1.0   0.03
Li     1 -0.4411700000000 -0.3260120000000  0.1767380000000 1.0  -0.05
Li     1 -0.4411700000000  0.3260120000000  0.1767380000000 1.0  -0.05
Li     1  0.5789520000000 -0.2022150000000  0.5110930000000 1.0   0.02
Li     1  0.5789520000000  0.2022150000000  0.5110930000000 1.0   0.02
O      2  0.0720860000000 -0.2293610000000  0.3340640000000 1.0   0.16
O      2  0.0720860000000  0.2293610000000  0.3340640000000 1.0   0.16
O      2  0.5441690000000 -0.5000000000000 -0.0465210000000 1.0   0.00
S      3 -0.4237470000000  0.0000000000000 -0.1170020000000 1.0  -0.04
Fe     4  0.0724140000000  0.0000000000000  0.1735390000000 1.0   3.29
END
