TITL LFSO-Li2Fe4S3O2-200912-050826-2db5d0 -0.0310 333.037399 -1.12773801E+004 -4.64084 16.0006 22 (P3) n - 1
REM
REM Run started: Sun, 13 Sep 2020 17:05:40 +0100 in /lustre/scratch/uccabz1/launch_tmp/launcher_2020-09-12-04-08-23-838239
REM CASTEP 20.1 from code version af48c487+ pr-geom-scf-spinfix Tue Jun 2 15:39:59 2020 +0100
REM Functional Perdew Burke Ernzerhof Relativity Koelling-Harmon Dispersion off
REM Cut-off 340.0000 eV Grid scale 1.7500 Gmax 16.5316 1/A FBSC none
REM MP grid 3 3 3 Offset 0.000 0.000 0.000 No. kpts 8 Spacing 0.07
REM Total runtime: 133297 s
REM Overall efficiency: 87.5556 %
REM
REM
REM
REM compiler GCC version 4.9.2
REM options -cpp -iprefix /lustre/shared/ucl/apps/gcc/4.9.2/bin/../lib/gcc/x86_64-unknown-linux-gnu/4.9.2/ -mtune=corei7 -march=x86-64 -g -Og
REM COMMAND_LINE
REM seed 1502117951 -1839901414 1500457796 1256506176 2121299498 1758559830 -398446822 1698055550 1633949135 -1555611281 721462875 -736361156
REM
REM S 3|1.8|5|6|7|30:31:32(qc=5)
REM O 2|1.5|12|13|15|20:21(qc=5)
REM Li 1|1.3|8|9|10|10U:20(qc=5)
REM Fe 3|2.2|2.0|1.0|8|9|10|40:41:32(qc=5)
REM 
CELL 1.54180    7.59951    7.59951    6.65873   90.00000   90.00000  120.00000
LATT -1
SFAC Li O  S  Fe 
Li     1  0.5550470000000 -0.1021930000000 -0.3451040000000 1.0   0.02
Li     1  0.3427600000000 -0.5550470000000 -0.3451040000000 1.0   0.02
Li     1  0.1021930000000 -0.3427600000000 -0.3451040000000 1.0   0.02
Li     1 -0.3333330000000  0.3333330000000 -0.3095990000000 1.0  -0.01
O      2 -0.4158060000000 -0.3228060000000 -0.2730270000000 1.0  -0.01
O      2  0.0930000000000  0.4158060000000 -0.2730270000000 1.0  -0.01
O      2  0.3228060000000 -0.0930000000000 -0.2730270000000 1.0  -0.01
O      2 -0.3333330000000  0.3333330000000 -0.0348460000000 1.0  -0.33
S      3 -0.3095280000000 -0.1503570000000  0.2248460000000 1.0   0.02
S      3  0.1591710000000  0.3095280000000  0.2248460000000 1.0   0.02
S      3  0.1503570000000 -0.1591710000000  0.2248460000000 1.0   0.02
S      3  0.3073470000000  0.1026860000000 -0.3544860000000 1.0   0.06
S      3 -0.2046610000000 -0.3073470000000 -0.3544860000000 1.0   0.06
S      3 -0.1026860000000  0.2046610000000 -0.3544860000000 1.0   0.06
Fe     4 -0.1653800000000 -0.3218100000000  0.3396820000000 1.0   1.01
Fe     4 -0.1564300000000  0.1653800000000  0.3396820000000 1.0   1.01
Fe     4  0.3218100000000  0.1564300000000  0.3396820000000 1.0   1.01
Fe     4  0.0328090000000 -0.4836700000000  0.1820170000000 1.0  -2.73
Fe     4  0.4835210000000 -0.0328090000000  0.1820170000000 1.0  -2.73
Fe     4  0.4836700000000 -0.4835210000000  0.1820170000000 1.0  -2.73
Fe     4 -0.3333330000000  0.3333330000000  0.2166950000000 1.0  -1.77
Fe     4  0.0000000000000 -0.0000000000000  0.1023060000000 1.0   2.34
END
