TITL LFSO-LiFe3S3O2-200909-152128-716137 -0.0821 276.259301 -9.15447074E+003 9.87765 11.7080 18 (R3) n - 1
REM
REM Run started: Thu, 10 Sep 2020 05:05:28 +0100 in /lustre/scratch/uccabz1/launch_tmp/launcher_2020-09-09-14-21-26-729690
REM CASTEP 20.1 from code version af48c487+ pr-geom-scf-spinfix Tue Jun 2 15:39:59 2020 +0100
REM Functional Perdew Burke Ernzerhof Relativity Koelling-Harmon Dispersion off
REM Cut-off 340.0000 eV Grid scale 1.7500 Gmax 16.5316 1/A FBSC none
REM MP grid 3 3 3 Offset 0.000 0.000 0.000 No. kpts 6 Spacing 0.07
REM Total runtime: 53053.2 s
REM Overall efficiency: 98.6154 %
REM
REM
REM
REM compiler GCC version 4.9.2
REM options -cpp -iprefix /lustre/shared/ucl/apps/gcc/4.9.2/bin/../lib/gcc/x86_64-unknown-linux-gnu/4.9.2/ -mtune=corei7 -march=x86-64 -g -Og
REM COMMAND_LINE
REM seed -1317677427 425285642 -1863903842 -11947042 -1573455259 1170949331 2100617981 -1940290828 -269213269 -1535825827 1986654660 42824831
REM
REM S 3|1.8|5|6|7|30:31:32(qc=5)
REM O 2|1.5|12|13|15|20:21(qc=5)
REM Li 1|1.3|8|9|10|10U:20(qc=5)
REM Fe 3|2.2|2.0|1.0|8|9|10|40:41:32(qc=5)
REM 
CELL 1.54180    6.84847    6.84847    6.84847   70.48256   70.48256   70.48256
LATT -1
SFAC Li O  S  Fe 
Li     1 -0.0106100000000 -0.0106100000000 -0.0106100000000 1.0   0.05
Li     1 -0.2572180000000 -0.2572180000000 -0.2572180000000 1.0   0.04
O      2 -0.1662500000000 -0.3564750000000  0.4433410000000 1.0   0.15
O      2 -0.3564750000000  0.4433410000000 -0.1662500000000 1.0   0.15
O      2  0.4433410000000 -0.1662500000000 -0.3564750000000 1.0   0.15
O      2 -0.1296920000000 -0.1296920000000 -0.1296920000000 1.0  -0.53
S      3 -0.3163640000000  0.2260380000000  0.3525280000000 1.0   0.01
S      3  0.2260380000000  0.3525280000000 -0.3163640000000 1.0   0.01
S      3  0.3525280000000 -0.3163640000000  0.2260380000000 1.0   0.01
S      3  0.1234330000000  0.5120810000000  0.0399690000000 1.0  -0.02
S      3  0.5120810000000  0.0399690000000  0.1234330000000 1.0  -0.02
S      3  0.0399690000000  0.1234330000000  0.5120810000000 1.0  -0.02
Fe     4  0.3743080000000  0.1178560000000  0.4813590000000 1.0   1.53
Fe     4  0.1178560000000  0.4813590000000  0.3743080000000 1.0   1.53
Fe     4  0.4813590000000  0.3743080000000  0.1178560000000 1.0   1.53
Fe     4  0.3856390000000 -0.4419980000000 -0.2418140000000 1.0   1.77
Fe     4 -0.4419980000000 -0.2418140000000  0.3856390000000 1.0   1.77
Fe     4 -0.2418140000000  0.3856390000000 -0.4419980000000 1.0   1.77
END
