TITL LFSO-Li2FeSO-200912-021243-433a1a 0.0179 57.044231 -2.00553748E+003 3.49917 3.52893 5 (P4/mmm) n - 1
REM
REM Run started: Sat, 12 Sep 2020 02:21:32 +0100 in /lustre/scratch/uccabz1/launch_tmp/launcher_2020-09-12-01-12-41-106646
REM CASTEP 20.1 from code version af48c487+ pr-geom-scf-spinfix Tue Jun 2 15:39:59 2020 +0100
REM Functional Perdew Burke Ernzerhof Relativity Koelling-Harmon Dispersion off
REM Cut-off 340.0000 eV Grid scale 1.7500 Gmax 16.5316 1/A FBSC none
REM MP grid 4 4 4 Offset 0.000 0.000 0.000 No. kpts 12 Spacing 0.07
REM Total runtime: 590.89 s
REM Overall efficiency: 82.5 %
REM
REM
REM
REM compiler GCC version 4.9.2
REM options -cpp -iprefix /lustre/shared/ucl/apps/gcc/4.9.2/bin/../lib/gcc/x86_64-unknown-linux-gnu/4.9.2/ -mtune=corei7 -march=x86-64 -g -Og
REM COMMAND_LINE
REM seed -87408172 -264162521 -368408639 -762085086 316170905 -1682175399 1245576673 -1106125549 229098323 2118128840 1029008412 -572769953
REM
REM S 3|1.8|5|6|7|30:31:32(qc=5)
REM O 2|1.5|12|13|15|20:21(qc=5)
REM Li 1|1.3|8|9|10|10U:20(qc=5)
REM Fe 3|2.2|2.0|1.0|8|9|10|40:41:32(qc=5)
REM 
CELL 1.54180    3.82042    3.82042    3.90832   90.00000   90.00000   89.99770
LATT -1
SFAC Li O  S  Fe 
Li     1  0.0000000000000 -0.5000000000000 -0.5000000000000 1.0  -0.07
Li     1 -0.5000000000000  0.0000000000000  0.5000000000000 1.0  -0.07
O      2  0.0000000000000  0.0000000000000 -0.5000000000000 1.0   0.16
S      3  0.5000000000000 -0.5000000000000  0.0000000000000 1.0   0.15
Fe     4  0.0000000000000  0.0000000000000  0.0000000000000 1.0   3.33
END
