TITL LFSO-Li3FeSO2-200911-150319-d5d3c3 -0.0128 292.685042 -7.93065033E+003 -11.0821 11.3547 21 (P-1) n - 1
REM
REM Run started: Sat, 12 Sep 2020 09:11:21 +0100 in /lustre/scratch/uccabz1/launch_tmp/launcher_2020-09-11-14-03-17-723262
REM CASTEP 20.1 from code version af48c487+ pr-geom-scf-spinfix Tue Jun 2 15:39:59 2020 +0100
REM Functional Perdew Burke Ernzerhof Relativity Koelling-Harmon Dispersion off
REM Cut-off 340.0000 eV Grid scale 1.7500 Gmax 16.5316 1/A FBSC none
REM MP grid 4 3 2 Offset 0.000 0.000 0.000 No. kpts 12 Spacing 0.07
REM Total runtime: 65886.6 s
REM Overall efficiency: 98.5455 %
REM
REM
REM
REM compiler GCC version 4.9.2
REM options -cpp -iprefix /lustre/shared/ucl/apps/gcc/4.9.2/bin/../lib/gcc/x86_64-unknown-linux-gnu/4.9.2/ -mtune=corei7 -march=x86-64 -g -Og
REM COMMAND_LINE
REM seed -1453575997 1697804342 -883418580 -1406974337 -523411883 1000430074 2027093977 1221174445 -213007863 -1852928452 -1878672975 2014797450
REM
REM S 3|1.8|5|6|7|30:31:32(qc=5)
REM O 2|1.5|12|13|15|20:21(qc=5)
REM Li 1|1.3|8|9|10|10U:20(qc=5)
REM Fe 3|2.2|2.0|1.0|8|9|10|40:41:32(qc=5)
REM 
CELL 1.54180    5.57543    5.91573   12.38524   89.92295   50.92321   72.56299
LATT -1
SFAC Li O  S  Fe 
Li     1  0.6070000000000  0.2674850000000 -0.2110310000000 1.0   0.01
Li     1 -0.6070000000000 -0.2674850000000  0.2110310000000 1.0   0.01
Li     1 -0.0093530000000 -0.8281180000000  0.4481310000000 1.0  -0.00
Li     1  0.0093530000000  0.8281180000000 -0.4481310000000 1.0  -0.00
Li     1  0.8384650000000 -0.7376000000000  0.1931250000000 1.0  -0.01
Li     1 -0.8384650000000  0.7376000000000 -0.1931250000000 1.0  -0.01
Li     1  0.3850990000000 -0.1036020000000 -0.0480070000000 1.0  -0.01
Li     1 -0.3850990000000  0.1036020000000  0.0480070000000 1.0  -0.01
Li     1  0.5000000000000 -0.5000000000000  0.0000000000000 1.0  -0.00
O      2 -0.0074220000000  0.1384370000000 -0.4029960000000 1.0  -0.32
O      2  0.0074220000000 -0.1384370000000  0.4029960000000 1.0  -0.32
O      2 -0.3470860000000 -0.6064060000000  0.1109900000000 1.0  -0.16
O      2  0.3470860000000  0.6064060000000 -0.1109900000000 1.0  -0.16
O      2  0.2781540000000  0.2507500000000  0.0147340000000 1.0  -0.13
O      2 -0.2781540000000 -0.2507500000000 -0.0147340000000 1.0  -0.13
S      3  0.2271360000000  0.1276030000000 -0.2280550000000 1.0  -0.26
S      3 -0.2271360000000 -0.1276030000000  0.2280550000000 1.0  -0.26
S      3  0.5000000000000  0.5000000000000 -0.5000000000000 1.0  -0.12
Fe     4  0.2915370000000  0.2088660000000 -0.4153710000000 1.0  -3.14
Fe     4 -0.2915370000000 -0.2088660000000  0.4153710000000 1.0  -3.14
Fe     4  0.0000000000000  0.5000000000000  0.0000000000000 1.0  -2.93
END
