TITL LFSO-LiFe3SO4-200909-004632-99e5d1 0.0130 111.146920 -4.84660492E+003 4.99960 5.16782 9 (R3) n - 1
REM
REM Run started: Wed, 09 Sep 2020 01:26:28 +0100 in /lustre/scratch/uccabz1/launch_tmp/launcher_2020-09-08-23-46-31-332298
REM CASTEP 20.1 from code version af48c487+ pr-geom-scf-spinfix Tue Jun 2 15:39:59 2020 +0100
REM Functional Perdew Burke Ernzerhof Relativity Koelling-Harmon Dispersion off
REM Cut-off 340.0000 eV Grid scale 1.7500 Gmax 16.5316 1/A FBSC none
REM MP grid 4 4 4 Offset 0.000 0.000 0.000 No. kpts 12 Spacing 0.07
REM Total runtime: 2574.4 s
REM Overall efficiency: 93.6667 %
REM
REM
REM
REM compiler GCC version 4.9.2
REM options -cpp -iprefix /lustre/shared/ucl/apps/gcc/4.9.2/bin/../lib/gcc/x86_64-unknown-linux-gnu/4.9.2/ -mtune=corei7 -march=x86-64 -g -Og
REM COMMAND_LINE
REM seed 1498016889 -448883509 410183478 -1809310802 -349670096 -1204603668 218660960 2054092681 -1927345616 -2065200053 -1402493066 -1974318566
REM
REM S 3|1.8|5|6|7|30:31:32(qc=5)
REM O 2|1.5|12|13|15|20:21(qc=5)
REM Li 1|1.3|8|9|10|10U:20(qc=5)
REM Fe 3|2.2|2.0|1.0|8|9|10|40:41:32(qc=5)
REM 
CELL 1.54180    6.23408    6.23408    6.23408   45.21737   45.21737   45.21737
LATT -1
SFAC Li O  S  Fe 
Li     1  0.2362090000000  0.2362090000000  0.2362090000000 1.0   0.02
O      2 -0.3536300000000  0.3242010000000 -0.0023740000000 1.0   0.07
O      2 -0.0023740000000 -0.3536300000000  0.3242010000000 1.0   0.07
O      2  0.3242010000000 -0.0023740000000 -0.3536300000000 1.0   0.07
O      2  0.1121320000000  0.1121320000000  0.1121320000000 1.0   0.04
S      3  0.4749780000000  0.4749780000000  0.4749780000000 1.0   0.02
Fe     4 -0.2797180000000  0.0312100000000  0.4014180000000 1.0   1.57
Fe     4  0.4014180000000 -0.2797180000000  0.0312100000000 1.0   1.57
Fe     4  0.0312100000000  0.4014180000000 -0.2797180000000 1.0   1.57
END
