TITL LFSO-Li5FeS2O2-200920-224849-dabacb -0.0166 375.829244 -6.69396311E+003 1.52027 1.74704 20 (P-1) n - 1
REM
REM Run started: Mon, 21 Sep 2020 13:32:02 +0100 in /lustre/scratch/uccabz1/launch_tmp/launcher_2020-09-20-21-48-48-053827
REM CASTEP 20.1 from code version af48c487+ pr-geom-scf-spinfix Tue Jun 2 15:39:59 2020 +0100
REM Functional Perdew Burke Ernzerhof Relativity Koelling-Harmon Dispersion off
REM Cut-off 340.0000 eV Grid scale 1.7500 Gmax 16.5316 1/A FBSC none
REM MP grid 6 2 2 Offset 0.000 0.000 0.000 No. kpts 12 Spacing 0.07
REM Total runtime: 58826.2 s
REM Overall efficiency: 88.5 %
REM
REM
REM
REM compiler GCC version 4.9.2
REM options -cpp -iprefix /lustre/shared/ucl/apps/gcc/4.9.2/bin/../lib/gcc/x86_64-unknown-linux-gnu/4.9.2/ -mtune=corei7 -march=x86-64 -g -Og
REM COMMAND_LINE
REM seed 219140104 -786585189 -1051737406 1891926158 -642770742 -1302170803 1758498653 1805538718 -653531482 -1089541417 -1632475089 1495329127
REM
REM S 3|1.8|5|6|7|30:31:32(qc=5)
REM O 2|1.5|12|13|15|20:21(qc=5)
REM Li 1|1.3|8|9|10|10U:20(qc=5)
REM Fe 3|2.2|2.0|1.0|8|9|10|40:41:32(qc=5)
REM 
CELL 1.54180    3.55311   10.72654   15.41650  118.15994  113.99804  107.30854
LATT -1
SFAC Li O  S  Fe 
Li     1 -0.5666420000000 -0.3663090000000 -0.1258860000000 1.0   0.02
Li     1  0.5666420000000  0.3663090000000  0.1258860000000 1.0   0.02
Li     1 -0.2660680000000 -0.3493150000000  0.0519600000000 1.0   0.00
Li     1  0.2660680000000  0.3493150000000 -0.0519600000000 1.0   0.00
Li     1 -0.4042750000000 -0.6156530000000 -0.1868610000000 1.0  -0.00
Li     1  0.4042750000000  0.6156530000000  0.1868610000000 1.0  -0.00
Li     1  0.5689310000000  0.1314350000000 -0.0435140000000 1.0  -0.00
Li     1 -0.5689310000000 -0.1314350000000  0.0435140000000 1.0  -0.00
Li     1 -0.3832060000000 -0.0830760000000 -0.1944500000000 1.0   0.00
Li     1  0.3832060000000  0.0830760000000  0.1944500000000 1.0   0.00
O      2 -0.2305780000000  0.5598380000000  0.1361450000000 1.0   0.00
O      2  0.2305780000000 -0.5598380000000 -0.1361450000000 1.0   0.00
O      2 -0.0630260000000 -0.1561250000000  0.0593950000000 1.0   0.00
O      2  0.0630260000000  0.1561250000000 -0.0593950000000 1.0   0.00
S      3  0.0786210000000  0.2681520000000  0.2127610000000 1.0   0.09
S      3 -0.0786210000000 -0.2681520000000 -0.2127610000000 1.0   0.09
S      3  0.0020970000000 -0.3183220000000 -0.4491750000000 1.0  -0.03
S      3 -0.0020970000000  0.3183220000000  0.4491750000000 1.0  -0.03
Fe     4  0.5072680000000  0.3987520000000  0.4115640000000 1.0   0.68
Fe     4 -0.5072680000000 -0.3987520000000 -0.4115640000000 1.0   0.68
END
