TITL LFSO-Li2Fe2S2O-200913-125601-8a1fa9 0.0721 329.457640 -9.51811140E+003 -18.2076 18.6127 21 (P-1) n - 1
REM
REM Run started: Tue, 15 Sep 2020 17:10:38 +0100 in /lustre/scratch/uccabz1/launch_tmp/launcher_2020-09-14-06-54-19-977239
REM CASTEP 20.1 from code version af48c487+ pr-geom-scf-spinfix Tue Jun 2 15:39:59 2020 +0100
REM Functional Perdew Burke Ernzerhof Relativity Koelling-Harmon Dispersion off
REM Cut-off 340.0000 eV Grid scale 1.7500 Gmax 16.5316 1/A FBSC none
REM MP grid 5 2 2 Offset 0.000 0.000 0.000 No. kpts 10 Spacing 0.07
REM Total runtime: 151239 s
REM Overall efficiency: 91.3077 %
REM
REM
REM
REM compiler GCC version 4.9.2
REM options -cpp -iprefix /lustre/shared/ucl/apps/gcc/4.9.2/bin/../lib/gcc/x86_64-unknown-linux-gnu/4.9.2/ -mtune=corei7 -march=x86-64 -g -Og
REM COMMAND_LINE
REM seed -1156834485 -814477767 1282985935 2060810548 977684966 -660075303 -1435106276 1000461385 1797586802 -757475033 731429960 1471151269
REM
REM S 3|1.8|5|6|7|30:31:32(qc=5)
REM O 2|1.5|12|13|15|20:21(qc=5)
REM Li 1|1.3|8|9|10|10U:20(qc=5)
REM Fe 3|2.2|2.0|1.0|8|9|10|40:41:32(qc=5)
REM 
CELL 1.54180    3.79400   10.67837   11.51473   56.07518   91.16672   64.91715
LATT -1
SFAC Li O  S  Fe 
Li     1 -0.0478630000000 -0.1796350000000  0.0207480000000 1.0   0.02
Li     1  0.0478630000000  0.1796350000000 -0.0207480000000 1.0   0.02
Li     1 -0.6447100000000  0.1538330000000 -0.1960160000000 1.0  -0.03
Li     1  0.6447100000000 -0.1538330000000  0.1960160000000 1.0  -0.03
Li     1 -0.3579910000000 -0.4244030000000 -0.3830190000000 1.0  -0.03
Li     1  0.3579910000000  0.4244030000000  0.3830190000000 1.0  -0.03
O      2  0.2317800000000 -0.3351870000000 -0.0530820000000 1.0  -0.24
O      2 -0.2317800000000  0.3351870000000  0.0530820000000 1.0  -0.24
O      2 -0.5000000000000  0.0000000000000  0.0000000000000 1.0  -0.07
S      3  0.2214460000000 -0.1379650000000  0.3595830000000 1.0  -0.20
S      3 -0.2214460000000  0.1379650000000 -0.3595830000000 1.0  -0.20
S      3  0.6465300000000 -0.4058830000000  0.2302640000000 1.0  -0.08
S      3 -0.6465300000000  0.4058830000000 -0.2302640000000 1.0  -0.08
S      3 -0.3451850000000 -0.2370560000000 -0.3172830000000 1.0  -0.11
S      3  0.3451850000000  0.2370560000000  0.3172830000000 1.0  -0.11
Fe     4  0.0649480000000 -0.1454460000000 -0.2704450000000 1.0  -2.83
Fe     4 -0.0649480000000  0.1454460000000  0.2704450000000 1.0  -2.83
Fe     4  0.2713720000000  0.5246750000000 -0.1133000000000 1.0  -2.68
Fe     4 -0.2713720000000 -0.5246750000000  0.1133000000000 1.0  -2.68
Fe     4 -0.3354780000000 -0.0710020000000  0.4428180000000 1.0  -2.88
Fe     4  0.3354780000000  0.0710020000000 -0.4428180000000 1.0  -2.88
END
