TITL LFSO-Li5FeS2O2-200920-224214-a6a017 -0.0003 136.222057 -3.34272599E+003 4.98049 5.04199 10 (P3m1) n - 1
REM
REM Run started: Sun, 20 Sep 2020 23:07:23 +0100 in /lustre/scratch/uccabz1/launch_tmp/launcher_2020-09-20-21-42-12-437508
REM CASTEP 20.1 from code version af48c487+ pr-geom-scf-spinfix Tue Jun 2 15:39:59 2020 +0100
REM Functional Perdew Burke Ernzerhof Relativity Koelling-Harmon Dispersion off
REM Cut-off 340.0000 eV Grid scale 1.7500 Gmax 16.5316 1/A FBSC none
REM MP grid 4 4 3 Offset 0.000 0.000 0.000 No. kpts 24 Spacing 0.07
REM Total runtime: 1567.13 s
REM Overall efficiency: 91.4 %
REM
REM
REM
REM compiler GCC version 4.9.2
REM options -cpp -iprefix /lustre/shared/ucl/apps/gcc/4.9.2/bin/../lib/gcc/x86_64-unknown-linux-gnu/4.9.2/ -mtune=corei7 -march=x86-64 -g -Og
REM COMMAND_LINE
REM seed -888395547 64401800 -1669556057 737317458 279329610 -980700256 -1296376581 412425861 332861632 -205744606 -898548454 600351866
REM
REM S 3|1.8|5|6|7|30:31:32(qc=5)
REM O 2|1.5|12|13|15|20:21(qc=5)
REM Li 1|1.3|8|9|10|10U:20(qc=5)
REM Fe 3|2.2|2.0|1.0|8|9|10|40:41:32(qc=5)
REM 
CELL 1.54180    4.86825    4.86825    6.63699   90.00000   90.00000  120.00000
LATT -1
SFAC Li O  S  Fe 
Li     1 -0.0390710000000  0.4806350000000  0.3492590000000 1.0  -0.05
Li     1  0.5197060000000  0.0390710000000  0.3492590000000 1.0  -0.05
Li     1 -0.4806350000000 -0.5197060000000  0.3492590000000 1.0  -0.05
Li     1  0.3333330000000 -0.3333330000000 -0.2949920000000 1.0   0.02
Li     1 -0.3333330000000  0.3333330000000 -0.1340770000000 1.0  -0.07
O      2 -0.3333330000000  0.3333330000000  0.1416920000000 1.0   0.38
O      2 -0.3333330000000  0.3333330000000 -0.4148750000000 1.0   0.32
S      3  0.3333330000000 -0.3333330000000  0.0495690000000 1.0   0.27
S      3  0.0000000000000  0.0000000000000  0.4478650000000 1.0   0.48
Fe     4  0.0000000000000  0.0000000000000  0.1188600000000 1.0   3.72
END
