TITL LFSO-Li2Fe2SO3-200913-103941-c12f9e 0.1380 335.917542 -1.12343463E+004 7.83308 22.1084 24 (C2) n - 1
REM
REM Run started: Tue, 15 Sep 2020 18:46:47 +0100 in /lustre/scratch/uccabz1/launch_tmp/launcher_2020-09-15-10-16-42-945588
REM CASTEP 20.1 from code version af48c487+ pr-geom-scf-spinfix Tue Jun 2 15:39:59 2020 +0100
REM Functional Perdew Burke Ernzerhof Relativity Koelling-Harmon Dispersion off
REM Cut-off 340.0000 eV Grid scale 1.7500 Gmax 16.5316 1/A FBSC none
REM MP grid 3 3 2 Offset 0.000 0.000 0.000 No. kpts 6 Spacing 0.07
REM Total runtime: 67741.4 s
REM Overall efficiency: 98.7692 %
REM
REM
REM
REM compiler GCC version 4.9.2
REM options -cpp -iprefix /lustre/shared/ucl/apps/gcc/4.9.2/bin/../lib/gcc/x86_64-unknown-linux-gnu/4.9.2/ -mtune=corei7 -march=x86-64 -g -Og
REM COMMAND_LINE
REM seed 1396941964 -1098396392 -1062534734 2124193517 1245445142 -1512365024 -1177973699 1009885733 -1251856496 -1598005953 -2064722416 42975001
REM
REM S 3|1.8|5|6|7|30:31:32(qc=5)
REM O 2|1.5|12|13|15|20:21(qc=5)
REM Li 1|1.3|8|9|10|10U:20(qc=5)
REM Fe 3|2.2|2.0|1.0|8|9|10|40:41:32(qc=5)
REM 
CELL 1.54180    6.12985    6.12985    8.96094   89.82246   89.82246   93.91897
LATT -1
SFAC Li O  S  Fe 
Li     1  0.1746010000000 -0.0481770000000  0.3223440000000 1.0   0.01
Li     1  0.0481770000000 -0.1746010000000 -0.3223440000000 1.0   0.01
Li     1 -0.3275430000000 -0.3269910000000 -0.1693490000000 1.0   0.03
Li     1  0.3269910000000  0.3275430000000  0.1693490000000 1.0   0.03
Li     1  0.3311260000000 -0.0163090000000 -0.0158880000000 1.0  -0.02
Li     1  0.0163090000000 -0.3311260000000  0.0158880000000 1.0  -0.02
O      2  0.1371640000000  0.1346500000000 -0.1354350000000 1.0   0.30
O      2 -0.1346500000000 -0.1371640000000  0.1354350000000 1.0   0.30
O      2  0.4283020000000  0.5038030000000  0.3231660000000 1.0  -0.00
O      2 -0.5038030000000 -0.4283020000000 -0.3231660000000 1.0  -0.00
O      2  0.4409650000000  0.0531360000000  0.1730010000000 1.0   0.35
O      2 -0.0531360000000 -0.4409650000000 -0.1730010000000 1.0   0.35
O      2  0.1679570000000  0.3106040000000 -0.4127620000000 1.0   0.04
O      2 -0.3106040000000 -0.1679570000000  0.4127620000000 1.0   0.04
O      2  0.2068750000000 -0.2068750000000 -0.5000000000000 1.0  -0.29
S      3 -0.4026340000000  0.0761460000000 -0.2616280000000 1.0   0.09
S      3 -0.0761460000000  0.4026340000000  0.2616280000000 1.0   0.09
S      3  0.4103330000000 -0.4103330000000  0.0000000000000 1.0  -0.05
Fe     4  0.3070870000000  0.3711610000000 -0.2414660000000 1.0   3.05
Fe     4 -0.3711610000000 -0.3070870000000  0.2414660000000 1.0   3.05
Fe     4  0.1798850000000  0.4952730000000  0.4321470000000 1.0  -3.22
Fe     4 -0.4952730000000 -0.1798850000000 -0.4321470000000 1.0  -3.22
Fe     4 -0.2637240000000  0.1249980000000  0.1487750000000 1.0   3.46
Fe     4 -0.1249980000000  0.2637240000000 -0.1487750000000 1.0   3.46
END
