TITL LFSO-LiFe3S4O-200909-075934-972817 0.0374 338.830767 -8.88448975E+003 0.197337 0.344525 18 (Cm) n - 1
REM
REM Run started: Thu, 10 Sep 2020 01:53:54 +0100 in /lustre/scratch/uccabz1/launch_tmp/launcher_2020-09-09-06-59-32-884971
REM CASTEP 20.1 from code version af48c487+ pr-geom-scf-spinfix Tue Jun 2 15:39:59 2020 +0100
REM Functional Perdew Burke Ernzerhof Relativity Koelling-Harmon Dispersion off
REM Cut-off 340.0000 eV Grid scale 1.7500 Gmax 16.5316 1/A FBSC none
REM MP grid 4 4 1 Offset 0.000 0.000 0.000 No. kpts 6 Spacing 0.07
REM Total runtime: 69575.4 s
REM Overall efficiency: 90.5455 %
REM
REM
REM
REM compiler GCC version 4.9.2
REM options -cpp -iprefix /lustre/shared/ucl/apps/gcc/4.9.2/bin/../lib/gcc/x86_64-unknown-linux-gnu/4.9.2/ -mtune=corei7 -march=x86-64 -g -Og
REM COMMAND_LINE
REM seed 1406081782 -793754079 1327888677 -1297462897 448500497 -1788103694 698230638 1660949188 1187650899 -216935652 1925565648 -1437921096
REM
REM S 3|1.8|5|6|7|30:31:32(qc=5)
REM O 2|1.5|12|13|15|20:21(qc=5)
REM Li 1|1.3|8|9|10|10U:20(qc=5)
REM Fe 3|2.2|2.0|1.0|8|9|10|40:41:32(qc=5)
REM 
CELL 1.54180    4.72577    4.72577   15.28866   85.23225   85.23225   91.78921
LATT -1
SFAC Li O  S  Fe 
Li     1 -0.1596270000000  0.3275320000000 -0.2164390000000 1.0   0.00
Li     1  0.3275320000000 -0.1596270000000 -0.2164390000000 1.0   0.00
O      2  0.2603060000000 -0.2526250000000  0.0745030000000 1.0  -0.00
O      2 -0.2526250000000  0.2603060000000  0.0745030000000 1.0  -0.00
S      3 -0.4817570000000  0.2161280000000 -0.3254540000000 1.0   0.00
S      3  0.2161280000000 -0.4817570000000 -0.3254540000000 1.0   0.00
S      3 -0.0415920000000 -0.3561400000000 -0.0942060000000 1.0   0.00
S      3 -0.3561400000000 -0.0415920000000 -0.0942060000000 1.0   0.00
S      3 -0.1409070000000  0.5297120000000  0.4446750000000 1.0   0.00
S      3  0.5297120000000 -0.1409070000000  0.4446750000000 1.0   0.00
S      3 -0.0013120000000  0.4169190000000  0.2644110000000 1.0   0.00
S      3  0.4169190000000 -0.0013120000000  0.2644110000000 1.0   0.00
Fe     4 -0.3751500000000  0.2697880000000  0.3560720000000 1.0  -0.01
Fe     4  0.2697880000000 -0.3751500000000  0.3560720000000 1.0  -0.01
Fe     4 -0.4004410000000 -0.0714890000000  0.0481160000000 1.0   0.11
Fe     4 -0.0714890000000 -0.4004410000000  0.0481160000000 1.0   0.11
Fe     4  0.3455100000000 -0.3405630000000  0.1889800000000 1.0  -0.00
Fe     4 -0.3405630000000  0.3455100000000  0.1889800000000 1.0  -0.00
END
