TITL LFSO-Li4Fe2SO3-200910-202227-01e0ff 0.0309 190.666313 -4.14269888E+003 6.09401 6.25580 10 (F222) n - 1
REM
REM Run started: Fri, 11 Sep 2020 06:21:41 +0100 in /lustre/scratch/uccabz1/launch_tmp/launcher_2020-09-10-19-22-25-855615
REM CASTEP 20.1 from code version af48c487+ pr-geom-scf-spinfix Tue Jun 2 15:39:59 2020 +0100
REM Functional Perdew Burke Ernzerhof Relativity Koelling-Harmon Dispersion off
REM Cut-off 340.0000 eV Grid scale 1.7500 Gmax 16.5316 1/A FBSC none
REM MP grid 4 4 7 Offset 0.000 0.000 0.000 No. kpts 36 Spacing 0.07
REM Total runtime: 39932.4 s
REM Overall efficiency: 97.3077 %
REM
REM
REM
REM compiler GCC version 4.9.2
REM options -cpp -iprefix /lustre/shared/ucl/apps/gcc/4.9.2/bin/../lib/gcc/x86_64-unknown-linux-gnu/4.9.2/ -mtune=corei7 -march=x86-64 -g -Og
REM COMMAND_LINE
REM seed 1493970934 -1981980704 1401501243 -939159999 -1111920206 -962284423 -353758358 948688906 1383506457 -931523048 -444340149 -1943770044
REM
REM S 3|1.8|5|6|7|30:31:32(qc=5)
REM O 2|1.5|12|13|15|20:21(qc=5)
REM Li 1|1.3|8|9|10|10U:20(qc=5)
REM Fe 3|2.2|2.0|1.0|8|9|10|40:41:32(qc=5)
REM 
CELL 1.54180    9.80320    9.80320    6.01843  122.58587  122.58587  109.79924
LATT -1
SFAC Li O  S  Fe 
Li     1  0.5299750000000 -0.1317910000000  0.0305340000000 1.0  -0.01
Li     1 -0.1623250000000  0.4994410000000 -0.0305340000000 1.0  -0.01
Li     1 -0.4994410000000  0.1623250000000  0.0305340000000 1.0  -0.01
Li     1  0.1317910000000 -0.5299750000000 -0.0305340000000 1.0  -0.01
O      2  0.4113960000000 -0.4113960000000 -0.5000000000000 1.0   0.19
O      2  0.0886040000000 -0.0886040000000 -0.5000000000000 1.0   0.19
O      2 -0.2500000000000  0.2500000000000 -0.5000000000000 1.0   0.01
S      3  0.5000000000000  0.5000000000000  0.0000000000000 1.0   0.26
Fe     4 -0.3032960000000 -0.3032960000000  0.0000000000000 1.0   2.74
Fe     4  0.3032960000000  0.3032960000000  0.0000000000000 1.0   2.74
END
