TITL LFSO-LiFe3S2O3-200909-170332-a39c65 0.0386 232.408171 -9.41975828E+003 -1.29739 1.85828 18 (I212121) n - 1
REM
REM Run started: Wed, 09 Sep 2020 22:08:48 +0100 in /lustre/scratch/uccabz1/launch_tmp/launcher_2020-09-09-16-03-30-611826
REM CASTEP 20.1 from code version af48c487+ pr-geom-scf-spinfix Tue Jun 2 15:39:59 2020 +0100
REM Functional Perdew Burke Ernzerhof Relativity Koelling-Harmon Dispersion off
REM Cut-off 340.0000 eV Grid scale 1.7500 Gmax 16.5316 1/A FBSC none
REM MP grid 3 3 3 Offset 0.000 0.000 0.000 No. kpts 8 Spacing 0.07
REM Total runtime: 19246.5 s
REM Overall efficiency: 97.875 %
REM
REM
REM
REM compiler GCC version 4.9.2
REM options -cpp -iprefix /lustre/shared/ucl/apps/gcc/4.9.2/bin/../lib/gcc/x86_64-unknown-linux-gnu/4.9.2/ -mtune=corei7 -march=x86-64 -g -Og
REM COMMAND_LINE
REM seed -27102000 429536557 1411722489 1864903889 -370881070 501669567 486053856 1859365999 22333877 967949628 589226581 594345926
REM
REM S 3|1.8|5|6|7|30:31:32(qc=5)
REM O 2|1.5|12|13|15|20:21(qc=5)
REM Li 1|1.3|8|9|10|10U:20(qc=5)
REM Fe 3|2.2|2.0|1.0|8|9|10|40:41:32(qc=5)
REM 
CELL 1.54180    5.61052    6.34920    7.77902  114.08534  111.13817   90.00000
LATT -1
SFAC Li O  S  Fe 
Li     1 -0.4501750000000 -0.2500000000000  0.5000000000000 1.0  -0.00
Li     1 -0.0498250000000  0.2500000000000 -0.5000000000000 1.0  -0.00
O      2  0.1944980000000  0.4188830000000 -0.1789030000000 1.0  -0.01
O      2 -0.3734010000000 -0.0977870000000 -0.1789030000000 1.0  -0.01
O      2  0.3055020000000 -0.4022130000000  0.1789030000000 1.0  -0.01
O      2 -0.1265990000000  0.0811170000000  0.1789030000000 1.0  -0.01
O      2 -0.2040160000000  0.0459840000000 -0.4080310000000 1.0   0.01
O      2 -0.2959840000000  0.4540160000000  0.4080310000000 1.0   0.01
S      3 -0.1587090000000 -0.4362950000000  0.2554070000000 1.0   0.01
S      3  0.4141160000000  0.1917030000000  0.2554070000000 1.0   0.01
S      3 -0.3412910000000  0.3082970000000 -0.2554070000000 1.0   0.01
S      3  0.0858840000000 -0.0637050000000 -0.2554070000000 1.0   0.01
Fe     4 -0.4750960000000 -0.0702210000000  0.0327700000000 1.0   0.03
Fe     4  0.5078660000000 -0.3970090000000  0.0327700000000 1.0   0.03
Fe     4 -0.0249040000000 -0.1029910000000 -0.0327700000000 1.0   0.03
Fe     4 -0.0078660000000 -0.4297790000000 -0.0327700000000 1.0   0.03
Fe     4 -0.2500000000000  0.2342550000000  0.0000000000000 1.0  -0.69
Fe     4  0.2500000000000  0.2657450000000  0.0000000000000 1.0  -0.69
END
