TITL LFSO-Li5FeS3O-200910-103434-5b0bd6 -0.0282 200.647125 -3.20980424E+003 3.00000 3.32724 10 (C2) n - 1
REM
REM Run started: Thu, 10 Sep 2020 14:40:30 +0100 in /lustre/scratch/uccabz1/launch_tmp/launcher_2020-09-10-09-34-33-142636
REM CASTEP 20.1 from code version af48c487+ pr-geom-scf-spinfix Tue Jun 2 15:39:59 2020 +0100
REM Functional Perdew Burke Ernzerhof Relativity Koelling-Harmon Dispersion off
REM Cut-off 340.0000 eV Grid scale 1.7500 Gmax 16.5316 1/A FBSC none
REM MP grid 3 4 2 Offset 0.000 0.000 0.000 No. kpts 10 Spacing 0.07
REM Total runtime: 15879.1 s
REM Overall efficiency: 95 %
REM
REM
REM
REM compiler GCC version 4.9.2
REM options -cpp -iprefix /lustre/shared/ucl/apps/gcc/4.9.2/bin/../lib/gcc/x86_64-unknown-linux-gnu/4.9.2/ -mtune=corei7 -march=x86-64 -g -Og
REM COMMAND_LINE
REM seed -2140069042 -1313121475 -115661019 -1077922155 182912854 854691622 -1108924063 -1807748024 -2077284047 553667506 1074739098 -1204372753
REM
REM S 3|1.8|5|6|7|30:31:32(qc=5)
REM O 2|1.5|12|13|15|20:21(qc=5)
REM Li 1|1.3|8|9|10|10U:20(qc=5)
REM Fe 3|2.2|2.0|1.0|8|9|10|40:41:32(qc=5)
REM 
CELL 1.54180    5.47871    4.72844   10.00948   79.51001   71.68369   54.59615
LATT -1
SFAC Li O  S  Fe 
Li     1  0.2611580000000  0.0302680000000 -0.2568370000000 1.0  -0.02
Li     1  0.7085730000000  0.0302680000000  0.2568370000000 1.0  -0.02
Li     1  0.4319060000000 -0.4103560000000  0.0930150000000 1.0  -0.00
Li     1 -0.0215490000000 -0.4103560000000 -0.0930150000000 1.0  -0.00
Li     1  0.0767930000000 -0.1535850000000 -0.5000000000000 1.0  -0.14
O      2  0.1924810000000 -0.3849630000000  0.0000000000000 1.0   0.00
S      3 -0.4480220000000  0.6121590000000  0.3203600000000 1.0   0.09
S      3 -0.1641380000000  0.6121590000000 -0.3203600000000 1.0   0.09
S      3 -0.0317550000000  0.0635100000000  0.0000000000000 1.0   0.01
Fe     4 -0.2879100000000  0.5758190000000  0.5000000000000 1.0   2.99
END
