TITL LFSO-LiFe3S2O3-200909-185528-cd94f0 -0.0212 114.114752 -4.70596314E+003 0.147823 0.988659 9 (C2/m) n - 1
REM
REM Run started: Thu, 10 Sep 2020 02:21:37 +0100 in /lustre/scratch/uccabz1/launch_tmp/launcher_2020-09-09-17-55-26-519809
REM CASTEP 20.1 from code version af48c487+ pr-geom-scf-spinfix Tue Jun 2 15:39:59 2020 +0100
REM Functional Perdew Burke Ernzerhof Relativity Koelling-Harmon Dispersion off
REM Cut-off 340.0000 eV Grid scale 1.7500 Gmax 16.5316 1/A FBSC none
REM MP grid 5 5 2 Offset 0.000 0.000 0.000 No. kpts 15 Spacing 0.07
REM Total runtime: 27374.3 s
REM Overall efficiency: 94.4286 %
REM
REM
REM
REM compiler GCC version 4.9.2
REM options -cpp -iprefix /lustre/shared/ucl/apps/gcc/4.9.2/bin/../lib/gcc/x86_64-unknown-linux-gnu/4.9.2/ -mtune=corei7 -march=x86-64 -g -Og
REM COMMAND_LINE
REM seed -609477991 255190457 -733529589 9465679 -1573799924 -1639984375 518621756 289314178 1758354038 723092355 -1283391842 -295812017
REM
REM S 3|1.8|5|6|7|30:31:32(qc=5)
REM O 2|1.5|12|13|15|20:21(qc=5)
REM Li 1|1.3|8|9|10|10U:20(qc=5)
REM Fe 3|2.2|2.0|1.0|8|9|10|40:41:32(qc=5)
REM 
CELL 1.54180    3.26317    3.26317   11.37985  100.64920  100.64920   75.60165
LATT -1
SFAC Li O  S  Fe 
Li     1 -0.5000000000000 -0.5000000000000 -0.5000000000000 1.0  -0.00
O      2 -0.3404490000000 -0.3404490000000  0.1616160000000 1.0   0.02
O      2  0.3404490000000  0.3404490000000 -0.1616160000000 1.0   0.02
O      2  0.0000000000000  0.0000000000000  0.0000000000000 1.0  -0.05
S      3  0.1821990000000  0.1821990000000  0.3482960000000 1.0   0.04
S      3 -0.1821990000000 -0.1821990000000 -0.3482960000000 1.0   0.04
Fe     4  0.0007100000000  0.0007100000000  0.1498390000000 1.0   0.06
Fe     4 -0.0007100000000 -0.0007100000000 -0.1498390000000 1.0   0.06
Fe     4  0.0000000000000  0.0000000000000  0.5000000000000 1.0  -0.05
END
