TITL LFSO-Li2Fe4SO4-200912-020354-6acd1b -0.0037 148.035769 -5.90610928E+003 0.713340 1.99989 11 (C2) n - 1
REM
REM Run started: Sat, 12 Sep 2020 10:05:01 +0100 in /lustre/scratch/uccabz1/launch_tmp/launcher_2020-09-12-01-03-53-350799
REM CASTEP 20.1 from code version af48c487+ pr-geom-scf-spinfix Tue Jun 2 15:39:59 2020 +0100
REM Functional Perdew Burke Ernzerhof Relativity Koelling-Harmon Dispersion off
REM Cut-off 340.0000 eV Grid scale 1.7500 Gmax 16.5316 1/A FBSC none
REM MP grid 4 4 2 Offset 0.000 0.000 0.000 No. kpts 10 Spacing 0.07
REM Total runtime: 30733.5 s
REM Overall efficiency: 75.2 %
REM
REM
REM
REM compiler GCC version 4.9.2
REM options -cpp -iprefix /lustre/shared/ucl/apps/gcc/4.9.2/bin/../lib/gcc/x86_64-unknown-linux-gnu/4.9.2/ -mtune=corei7 -march=x86-64 -g -Og
REM COMMAND_LINE
REM seed 861124185 -575258804 1187155241 -1836995264 -258551823 -946495101 1311084729 935324726 194803897 -1889965336 1177861768 -1888231270
REM
REM S 3|1.8|5|6|7|30:31:32(qc=5)
REM O 2|1.5|12|13|15|20:21(qc=5)
REM Li 1|1.3|8|9|10|10U:20(qc=5)
REM Fe 3|2.2|2.0|1.0|8|9|10|40:41:32(qc=5)
REM 
CELL 1.54180    4.23938    4.23938    8.50632   81.68487   81.68487   80.46281
LATT -1
SFAC Li O  S  Fe 
Li     1 -0.1467660000000 -0.0146470000000  0.2506230000000 1.0   0.00
Li     1  0.0146470000000  0.1467660000000 -0.2506230000000 1.0   0.00
O      2  0.5920090000000 -0.1658980000000  0.4287250000000 1.0   0.01
O      2  0.1658980000000 -0.5920090000000 -0.4287250000000 1.0   0.01
O      2  0.2221310000000 -0.3070570000000  0.1812730000000 1.0  -0.05
O      2  0.3070570000000 -0.2221310000000 -0.1812730000000 1.0  -0.05
S      3 -0.2920740000000  0.2920740000000  0.0000000000000 1.0   0.01
Fe     4  0.1261260000000  0.5193940000000  0.0003830000000 1.0   0.31
Fe     4 -0.5193940000000 -0.1261260000000 -0.0003830000000 1.0   0.31
Fe     4  0.4183900000000 -0.3302870000000 -0.3821840000000 1.0   0.10
Fe     4  0.3302870000000 -0.4183900000000  0.3821840000000 1.0   0.10
END
