TITL LFSO-Li4Fe3S2O3-200928-043954-8430a5 0.1210 447.789318 -1.06218837E+004 18.1231 18.5740 24 (P2) n - 1
REM
REM Run started: Tue, 29 Sep 2020 15:58:53 +0100 in /scratch/scratch/uccabz1/launch_tmp/launcher_2020-09-28-03-39-51-407041
REM CASTEP 19.11| from code version Version unavailable
REM Functional Perdew Burke Ernzerhof Relativity Koelling-Harmon Dispersion off
REM Cut-off 340.0000 eV Grid scale 1.7500 Gmax 16.5316 1/A FBSC none
REM MP grid 3 3 2 Offset 0.000 0.000 0.000 No. kpts 5 Spacing 0.07
REM Total runtime: 96641.5 s
REM Overall efficiency: 79.3333 %
REM
REM
REM
REM compiler GCC version 4.9.2
REM options -cpp -iprefix /scratch/UCL/applications/gcc/4.9.2/bin/../lib/gcc/x86_64-unknown-linux-gnu/4.9.2/ -mtune=corei7 -march=x86-64 -g -O2
REM COMMAND_LINE
REM seed 756001679 666290503 726751767 17033575 688407349 1825556424 -1146747878 -1243331638 -497396734 -1135213933 -1070675144 -1069650845
REM
REM S 3|1.8|5|6|7|30:31:32(qc=5)
REM O 2|1.5|12|13|15|20:21(qc=5)
REM Li 1|1.3|8|9|10|10U:20(qc=5)
REM Fe 3|2.2|2.0|1.0|8|9|10|40:41:32(qc=5)
REM 
CELL 1.54180    6.90430    9.00927    9.16558   90.00000   90.00000  128.24008
LATT -1
SFAC Li O  S  Fe 
Li     1  0.0746030000000  0.6604890000000  0.4271630000000 1.0   0.03
Li     1 -0.0746030000000 -0.6604890000000  0.4271630000000 1.0   0.03
Li     1 -0.2162810000000 -0.3100210000000  0.0297940000000 1.0   0.01
Li     1  0.2162810000000  0.3100210000000  0.0297940000000 1.0   0.01
Li     1  0.1607260000000 -0.2749400000000  0.1071480000000 1.0   0.02
Li     1 -0.1607260000000  0.2749400000000  0.1071480000000 1.0   0.02
Li     1 -0.2406310000000 -0.4233190000000 -0.3474580000000 1.0   0.01
Li     1  0.2406310000000  0.4233190000000 -0.3474580000000 1.0   0.01
O      2  0.1248420000000  0.3928740000000  0.2180750000000 1.0   0.07
O      2 -0.1248420000000 -0.3928740000000  0.2180750000000 1.0   0.07
O      2  0.2975040000000 -0.3985320000000  0.4894460000000 1.0   0.09
O      2 -0.2975040000000  0.3985320000000  0.4894460000000 1.0   0.09
O      2 -0.1042040000000  0.1616380000000 -0.0297050000000 1.0   0.38
O      2  0.1042040000000 -0.1616380000000 -0.0297050000000 1.0   0.38
S      3 -0.5053900000000 -0.3105370000000 -0.1687280000000 1.0   0.28
S      3  0.5053900000000  0.3105370000000 -0.1687280000000 1.0   0.28
S      3 -0.1628310000000  0.1098350000000 -0.4123190000000 1.0   0.27
S      3  0.1628310000000 -0.1098350000000 -0.4123190000000 1.0   0.27
Fe     4 -0.4421080000000  0.1761910000000 -0.3653080000000 1.0   3.38
Fe     4  0.4421080000000 -0.1761910000000 -0.3653080000000 1.0   3.38
Fe     4 -0.1939100000000  0.0072230000000 -0.1766510000000 1.0   3.34
Fe     4  0.1939100000000 -0.0072230000000 -0.1766510000000 1.0   3.34
Fe     4  0.3676300000000  0.5143110000000  0.3374130000000 1.0   1.20
Fe     4 -0.3676300000000 -0.5143110000000  0.3374130000000 1.0   1.20
END
