TITL LFSO-LiFe3S2O3-200909-200139-09ef5f -0.0475 311.134258 -9.41713682E+003 -0.112225E-01 0.245599 18 (C2221) n - 1
REM
REM Run started: Thu, 10 Sep 2020 11:01:04 +0100 in /lustre/scratch/uccabz1/launch_tmp/launcher_2020-09-10-09-40-10-876321
REM CASTEP 20.1 from code version af48c487+ pr-geom-scf-spinfix Tue Jun 2 15:39:59 2020 +0100
REM Functional Perdew Burke Ernzerhof Relativity Koelling-Harmon Dispersion off
REM Cut-off 340.0000 eV Grid scale 1.7500 Gmax 16.5316 1/A FBSC none
REM MP grid 3 3 3 Offset 0.000 0.000 0.000 No. kpts 8 Spacing 0.07
REM Total runtime: 53790.3 s
REM Overall efficiency: 97.7273 %
REM
REM
REM
REM compiler GCC version 4.9.2
REM options -cpp -iprefix /lustre/shared/ucl/apps/gcc/4.9.2/bin/../lib/gcc/x86_64-unknown-linux-gnu/4.9.2/ -mtune=corei7 -march=x86-64 -g -Og
REM COMMAND_LINE
REM seed 867040507 -1240921446 -1212510165 1362400210 1890583179 1370896901 1482484691 309302839 -301094492 751593336 -139193493 732550959
REM
REM S 3|1.8|5|6|7|30:31:32(qc=5)
REM O 2|1.5|12|13|15|20:21(qc=5)
REM Li 1|1.3|8|9|10|10U:20(qc=5)
REM Fe 3|2.2|2.0|1.0|8|9|10|40:41:32(qc=5)
REM 
CELL 1.54180    6.81185    7.36460    7.21280  120.69869   90.00000   90.00000
LATT -1
SFAC Li O  S  Fe 
Li     1 -0.0000000000000 -0.5059900000000  0.0000000000000 1.0  -0.00
Li     1 -0.5000000000000  0.5059900000000  0.0000000000000 1.0  -0.00
O      2  0.1481540000000  0.3752770000000  0.1611330000000 1.0   0.00
O      2 -0.3518460000000 -0.3752770000000 -0.1611330000000 1.0   0.00
O      2  0.3518460000000 -0.2141440000000  0.1611330000000 1.0   0.00
O      2 -0.1481540000000  0.2141440000000 -0.1611330000000 1.0   0.00
O      2  0.2500000000000 -0.1972420000000 -0.3944840000000 1.0   0.00
O      2 -0.2500000000000  0.1972420000000  0.3944840000000 1.0   0.00
S      3  0.1207700000000 -0.2971090000000 -0.2538880000000 1.0   0.00
S      3 -0.3792300000000  0.2971090000000  0.2538880000000 1.0   0.00
S      3  0.3792300000000  0.0432210000000 -0.2538880000000 1.0   0.00
S      3 -0.1207700000000 -0.0432210000000  0.2538880000000 1.0   0.00
Fe     4 -0.3459740000000  0.1134180000000 -0.0798760000000 1.0   0.00
Fe     4  0.1540260000000 -0.1134180000000  0.0798760000000 1.0   0.00
Fe     4 -0.1540260000000 -0.1932940000000 -0.0798760000000 1.0   0.00
Fe     4  0.3459740000000  0.1932940000000  0.0798760000000 1.0   0.00
Fe     4 -0.0000000000000  0.1580210000000  0.0000000000000 1.0  -0.01
Fe     4 -0.5000000000000 -0.1580210000000  0.0000000000000 1.0  -0.01
END
