TITL LFSO-Li3FeS2O-200911-185148-fd54c4 0.1474 405.232380 -7.52596667E+003 9.21917 9.97680 21 (Imm2) n - 1
REM
REM Run started: Sat, 12 Sep 2020 08:49:11 +0100 in /lustre/scratch/uccabz1/launch_tmp/launcher_2020-09-12-06-00-14-917486
REM CASTEP 20.1 from code version af48c487+ pr-geom-scf-spinfix Tue Jun 2 15:39:59 2020 +0100
REM Functional Perdew Burke Ernzerhof Relativity Koelling-Harmon Dispersion off
REM Cut-off 340.0000 eV Grid scale 1.7500 Gmax 16.5316 1/A FBSC none
REM MP grid 3 2 3 Offset 0.000 0.000 0.000 No. kpts 9 Spacing 0.07
REM Total runtime: 46470.1 s
REM Overall efficiency: 98.8 %
REM
REM
REM
REM compiler GCC version 4.9.2
REM options -cpp -iprefix /lustre/shared/ucl/apps/gcc/4.9.2/bin/../lib/gcc/x86_64-unknown-linux-gnu/4.9.2/ -mtune=corei7 -march=x86-64 -g -Og
REM COMMAND_LINE
REM seed 627126522 -625722135 796547017 -1493926360 507105588 -292301710 -610278674 1107888710 -1698062938 -98504878 -1742804598 -622537844
REM
REM S 3|1.8|5|6|7|30:31:32(qc=5)
REM O 2|1.5|12|13|15|20:21(qc=5)
REM Li 1|1.3|8|9|10|10U:20(qc=5)
REM Fe 3|2.2|2.0|1.0|8|9|10|40:41:32(qc=5)
REM 
CELL 1.54180    9.72230    9.72230    9.72230  127.52880  145.76797   64.15575
LATT -1
SFAC Li O  S  Fe 
Li     1 -0.2620610000000  0.2436980000000 -0.1505550000000 1.0   0.00
Li     1 -0.3942550000000 -0.2436990000000 -0.5057600000000 1.0   0.00
Li     1 -0.3942550000000  0.1115050000000 -0.1505550000000 1.0   0.00
Li     1 -0.2620610000000 -0.1115060000000 -0.5057600000000 1.0   0.00
Li     1  0.0164920000000  0.5913280000000 -0.0442770000000 1.0   0.00
Li     1  0.3643940000000 -0.5913290000000  0.4251640000000 1.0   0.00
Li     1  0.3643940000000 -0.0607700000000 -0.0442770000000 1.0   0.00
Li     1  0.0164920000000  0.0607690000000  0.4251640000000 1.0   0.00
Li     1 -0.7652900000000  0.4999990000000 -0.2652900000000 1.0  -0.04
O      2 -0.4323600000000  0.3595710000000 -0.0727880000000 1.0   0.13
O      2 -0.4323600000000 -0.3595720000000  0.2080690000000 1.0   0.13
O      2 -0.4302230000000 -0.0000010000000 -0.4302230000000 1.0   0.17
S      3  0.4159250000000 -0.4959220000000  0.2844600000000 1.0   0.09
S      3 -0.2196190000000  0.4959210000000 -0.0881530000000 1.0   0.09
S      3 -0.2196190000000 -0.1314660000000  0.2844600000000 1.0   0.09
S      3  0.4159250000000  0.1314650000000 -0.0881530000000 1.0   0.09
S      3  0.0715170000000 -0.2164130000000 -0.1448940000000 1.0   0.10
S      3  0.0715170000000  0.2164120000000  0.2879300000000 1.0   0.10
Fe     4 -0.4827630000000  0.4106290000000  0.1066080000000 1.0   2.73
Fe     4 -0.3040230000000 -0.4106300000000  0.1066080000000 1.0   2.73
Fe     4  0.2587950000000 -0.0000010000000  0.2587960000000 1.0   2.78
END
