TITL LFSO-Li3Fe3S5O-200929-123912-bf915f 0.3181 477.589504 -1.02906406E+004 18.8375 19.4664 24 (R3) n - 1
REM
REM Run started: Wed, 30 Sep 2020 11:13:47 +0100 in /lustre/scratch/uccabz1/launch_tmp/launcher_2020-09-30-04-38-40-123655
REM CASTEP 20.1 from code version af48c487+ pr-geom-scf-spinfix Tue Jun 2 15:39:59 2020 +0100
REM Functional Perdew Burke Ernzerhof Relativity Koelling-Harmon Dispersion off
REM Cut-off 340.0000 eV Grid scale 1.7500 Gmax 16.5316 1/A FBSC none
REM MP grid 2 2 2 Offset 0.000 0.000 0.000 No. kpts 4 Spacing 0.07
REM Total runtime: 78267.9 s
REM Overall efficiency: 88.2727 %
REM
REM
REM
REM compiler GCC version 4.9.2
REM options -cpp -iprefix /scratch/UCL/applications/gcc/4.9.2/bin/../lib/gcc/x86_64-unknown-linux-gnu/4.9.2/ -mtune=corei7 -march=x86-64 -g -O2
REM COMMAND_LINE
REM seed 1084736181 340256480 -2104575498 375149860 -1959848412 1599992794 -558569193 1133372248 1574031725 773825051 -676658639 1927295487
REM
REM S 3|1.8|5|6|7|30:31:32(qc=5)
REM O 2|1.5|12|13|15|20:21(qc=5)
REM Li 1|1.3|8|9|10|10U:20(qc=5)
REM Fe 3|2.2|2.0|1.0|8|9|10|40:41:32(qc=5)
REM 
CELL 1.54180    8.88089    8.88089    8.67066   59.19467   59.19467   60.00000
LATT -1
SFAC Li O  S  Fe 
Li     1 -0.3158230000000  0.0264720000000  0.2627510000000 1.0  -0.01
Li     1  0.0266000000000 -0.3158230000000  0.2627510000000 1.0  -0.01
Li     1  0.0264720000000  0.0266000000000  0.2627510000000 1.0  -0.01
Li     1  0.3585280000000 -0.1584150000000 -0.0702400000000 1.0  -0.02
Li     1 -0.1298740000000  0.3585280000000 -0.0702400000000 1.0  -0.02
Li     1 -0.1584150000000 -0.1298740000000 -0.0702400000000 1.0  -0.02
O      2 -0.0559430000000 -0.0559430000000  0.1678300000000 1.0   0.07
O      2 -0.5076070000000 -0.5076070000000  0.5228220000000 1.0   0.10
S      3 -0.1155340000000 -0.4415580000000  0.1586120000000 1.0   0.13
S      3  0.3984800000000 -0.1155340000000  0.1586120000000 1.0   0.13
S      3 -0.4415580000000  0.3984800000000  0.1586120000000 1.0   0.13
S      3  0.0586900000000  0.3375770000000  0.0594320000000 1.0   0.01
S      3 -0.4556990000000  0.0586900000000  0.0594320000000 1.0   0.01
S      3  0.3375770000000 -0.4556990000000  0.0594320000000 1.0   0.01
S      3  0.4727740000000  0.0305510000000 -0.4073420000000 1.0   0.15
S      3 -0.0959830000000  0.4727740000000 -0.4073420000000 1.0   0.15
S      3  0.0305510000000 -0.0959830000000 -0.4073420000000 1.0   0.15
S      3  0.0292050000000  0.0292050000000 -0.0876140000000 1.0   0.20
Fe     4 -0.0595020000000  0.1781690000000  0.6338900000000 1.0   3.04
Fe     4  0.2474430000000 -0.0595020000000  0.6338900000000 1.0   3.04
Fe     4  0.1781690000000  0.2474430000000  0.6338900000000 1.0   3.04
Fe     4  0.3209870000000 -0.2712120000000 -0.5290310000000 1.0   2.85
Fe     4 -0.5207440000000  0.3209870000000 -0.5290310000000 1.0   2.85
Fe     4 -0.2712120000000 -0.5207440000000 -0.5290310000000 1.0   2.85
END
