TITL LFSO-Li3Fe3SO5-201002-145447-9cff93 -0.0454 153.893103 -5.68295582E+003 4.98268 11.9450 12 (P1) n - 1
REM
REM Run started: Fri, 02 Oct 2020 18:02:36 +0100 in /scratch/scratch/mmm0366/launch_tmp/launcher_2020-10-02-13-54-46-092901
REM CASTEP 19.11| from code version Version unavailable
REM Functional Perdew Burke Ernzerhof Relativity Koelling-Harmon Dispersion off
REM Cut-off 340.0000 eV Grid scale 1.7500 Gmax 16.5316 1/A FBSC none
REM MP grid 3 3 4 Offset 0.000 0.000 0.000 No. kpts 12 Spacing 0.07
REM Total runtime: 12415.8 s
REM Overall efficiency: 87 %
REM
REM
REM
REM compiler GCC version 4.9.2
REM options -cpp -iprefix /scratch/UCL/applications/gcc/4.9.2/bin/../lib/gcc/x86_64-unknown-linux-gnu/4.9.2/ -mtune=corei7 -march=x86-64 -g -O2
REM COMMAND_LINE
REM seed -1135027056 -1048559684 633150718 -712031976 -1140743497 758759306 374517274 2024095497 2098048157 1563343647 -190582448 1152331583
REM
REM S 3|1.8|5|6|7|30:31:32(qc=5)
REM O 2|1.5|12|13|15|20:21(qc=5)
REM Li 1|1.3|8|9|10|10U:20(qc=5)
REM Fe 3|2.2|2.0|1.0|8|9|10|40:41:32(qc=5)
REM 
CELL 1.54180    5.70574    5.70574    6.21476  117.32570  117.32570   90.00000
LATT -1
SFAC Li O  S  Fe 
Li     1  0.0576830000000  0.5576830000000  0.1153660000000 1.0  -0.02
Li     1 -0.5576830000000 -0.0576830000000 -0.1153660000000 1.0  -0.02
Li     1  0.5000000000000  0.5000000000000  0.0000000000000 1.0  -0.05
O      2 -0.3930390000000  0.3649590000000 -0.2703230000000 1.0   0.06
O      2  0.1227160000000  0.3647190000000 -0.2703230000000 1.0   0.06
O      2 -0.3649590000000 -0.1227160000000  0.2703230000000 1.0   0.06
O      2 -0.3647190000000  0.3930390000000  0.2703230000000 1.0   0.06
O      2  0.2500000000000 -0.2500000000000 -0.5000000000000 1.0   0.52
S      3  0.0000000000000 -0.0000000000000  0.0000000000000 1.0   0.38
Fe     4 -0.2383290000000 -0.2383290000000 -0.4766580000000 1.0   3.69
Fe     4  0.2383290000000  0.2383290000000  0.4766580000000 1.0   3.69
Fe     4 -0.2500000000000  0.2500000000000  0.5000000000000 1.0  -3.45
END
