TITL LFSO-Li4Fe3SO4-200928-150332-40ac98 -0.0311 270.348199 -1.08919698E+004 17.9937 18.6201 24 (Pnc2) n - 1
REM
REM Run started: Mon, 28 Sep 2020 16:55:32 +0100 in /scratch/scratch/uccabz1/launch_tmp/launcher_2020-09-28-14-03-30-680668
REM CASTEP 19.11| from code version Version unavailable
REM Functional Perdew Burke Ernzerhof Relativity Koelling-Harmon Dispersion off
REM Cut-off 340.0000 eV Grid scale 1.7500 Gmax 16.5316 1/A FBSC none
REM MP grid 4 2 2 Offset 0.000 0.000 0.000 No. kpts 2 Spacing 0.07
REM Total runtime: 8147.6 s
REM Overall efficiency: 85.5 %
REM
REM
REM
REM compiler GCC version 4.9.2
REM options -cpp -iprefix /scratch/UCL/applications/gcc/4.9.2/bin/../lib/gcc/x86_64-unknown-linux-gnu/4.9.2/ -mtune=corei7 -march=x86-64 -g -O2
REM COMMAND_LINE
REM seed -1180688744 770198672 -1271247634 -867299917 -177773440 -892617131 1175613618 -1826759112 1354515971 526686745 -4887490 725603540
REM
REM S 3|1.8|5|6|7|30:31:32(qc=5)
REM O 2|1.5|12|13|15|20:21(qc=5)
REM Li 1|1.3|8|9|10|10U:20(qc=5)
REM Fe 3|2.2|2.0|1.0|8|9|10|40:41:32(qc=5)
REM 
CELL 1.54180    3.73797    7.52543    9.61073   90.00000   90.00000   90.00000
LATT -1
SFAC Li O  S  Fe 
Li     1  0.2330930000000  0.0105570000000 -0.0831140000000 1.0  -0.02
Li     1 -0.2330930000000  0.0105570000000  0.0831140000000 1.0  -0.02
Li     1  0.2669070000000  0.5105570000000 -0.0831140000000 1.0  -0.02
Li     1 -0.2669070000000  0.5105570000000  0.0831140000000 1.0  -0.02
Li     1  0.5281100000000  0.0371500000000  0.3166490000000 1.0  -0.12
Li     1 -0.5281100000000  0.0371500000000 -0.3166490000000 1.0  -0.12
Li     1 -0.0281100000000 -0.4628500000000  0.3166490000000 1.0  -0.12
Li     1  0.0281100000000 -0.4628500000000 -0.3166490000000 1.0  -0.12
O      2 -0.2617620000000  0.0044160000000 -0.1344490000000 1.0   0.13
O      2  0.2617620000000  0.0044160000000  0.1344490000000 1.0   0.13
O      2 -0.2382380000000 -0.4955840000000 -0.1344490000000 1.0   0.13
O      2  0.2382380000000 -0.4955840000000  0.1344490000000 1.0   0.13
O      2 -0.2367330000000 -0.2515040000000  0.1866320000000 1.0   0.19
O      2  0.2367330000000 -0.2515040000000 -0.1866320000000 1.0   0.19
O      2 -0.2632670000000  0.2484960000000  0.1866320000000 1.0   0.19
O      2  0.2632670000000  0.2484960000000 -0.1866320000000 1.0   0.19
S      3 -0.0000000000000 -0.0496070000000  0.5000000000000 1.0   0.14
S      3 -0.5000000000000  0.4503930000000  0.5000000000000 1.0   0.14
Fe     4  0.2676690000000 -0.2444950000000  0.1618450000000 1.0   2.65
Fe     4 -0.2676690000000 -0.2444950000000 -0.1618450000000 1.0   2.65
Fe     4  0.2323310000000  0.2555050000000  0.1618450000000 1.0   2.65
Fe     4 -0.2323310000000  0.2555050000000 -0.1618450000000 1.0   2.65
Fe     4 -0.5000000000000 -0.2396140000000  0.5000000000000 1.0   3.19
Fe     4 -0.0000000000000  0.2603860000000 -0.5000000000000 1.0   3.19
END
