TITL LFSO-Li2Fe4S3O2-200912-063600-b70af1 0.6204 332.078025 -1.12814983E+004 0.104444 0.192742 22 (P2) n - 1
REM
REM Run started: Sun, 13 Sep 2020 10:16:27 +0100 in /lustre/scratch/uccabz1/launch_tmp/launcher_2020-09-12-05-35-58-459496
REM CASTEP 20.1 from code version af48c487+ pr-geom-scf-spinfix Tue Jun 2 15:39:59 2020 +0100
REM Functional Perdew Burke Ernzerhof Relativity Koelling-Harmon Dispersion off
REM Cut-off 340.0000 eV Grid scale 1.7500 Gmax 16.5316 1/A FBSC none
REM MP grid 3 2 2 Offset 0.000 0.000 0.000 No. kpts 3 Spacing 0.07
REM Total runtime: 107048 s
REM Overall efficiency: 96.4167 %
REM
REM
REM
REM compiler GCC version 4.9.2
REM options -cpp -iprefix /lustre/shared/ucl/apps/gcc/4.9.2/bin/../lib/gcc/x86_64-unknown-linux-gnu/4.9.2/ -mtune=corei7 -march=x86-64 -g -Og
REM COMMAND_LINE
REM seed 2144871700 1311215924 -11916318 68328034 1238168572 -756945961 1498233630 870349519 -54775416 651683716 1479151327 -1413483479
REM
REM S 3|1.8|5|6|7|30:31:32(qc=5)
REM O 2|1.5|12|13|15|20:21(qc=5)
REM Li 1|1.3|8|9|10|10U:20(qc=5)
REM Fe 3|2.2|2.0|1.0|8|9|10|40:41:32(qc=5)
REM 
CELL 1.54180    5.79291    8.01112    7.59465   90.00000   90.00000  109.57581
LATT -1
SFAC Li O  S  Fe 
Li     1  0.0029010000000 -0.1688200000000 -0.1507640000000 1.0  -0.00
Li     1 -0.0029010000000  0.1688200000000 -0.1507640000000 1.0  -0.00
Li     1 -0.2947360000000 -0.2930200000000 -0.4973720000000 1.0   0.00
Li     1  0.2947360000000  0.2930200000000 -0.4973720000000 1.0   0.00
O      2 -0.0043390000000 -0.2334350000000 -0.3725160000000 1.0   0.00
O      2  0.0043390000000  0.2334350000000 -0.3725160000000 1.0   0.00
O      2 -0.6552850000000 -0.3959330000000 -0.5161440000000 1.0  -0.00
O      2  0.6552850000000  0.3959330000000 -0.5161440000000 1.0  -0.00
S      3 -0.3007230000000  0.4205020000000 -0.0886510000000 1.0  -0.00
S      3  0.3007230000000 -0.4205020000000 -0.0886510000000 1.0  -0.00
S      3  0.2764820000000  0.0655130000000  0.0152530000000 1.0   0.00
S      3 -0.2764820000000 -0.0655130000000  0.0152530000000 1.0   0.00
S      3 -0.0057910000000 -0.2851320000000  0.2316040000000 1.0  -0.00
S      3  0.0057910000000  0.2851320000000  0.2316040000000 1.0  -0.00
Fe     4  0.2560220000000 -0.4355930000000  0.2629810000000 1.0   0.02
Fe     4 -0.2560220000000  0.4355930000000  0.2629810000000 1.0   0.02
Fe     4 -0.3335370000000  0.1901580000000  0.0689790000000 1.0   0.05
Fe     4  0.3335370000000 -0.1901580000000  0.0689790000000 1.0   0.05
Fe     4 -0.1543640000000  0.3765780000000 -0.3421990000000 1.0  -0.01
Fe     4  0.1543640000000 -0.3765780000000 -0.3421990000000 1.0  -0.01
Fe     4  0.3539460000000  0.3527290000000  0.0752790000000 1.0   0.01
Fe     4 -0.3539460000000 -0.3527290000000  0.0752790000000 1.0   0.01
END
