TITL LFSO-Li4Fe2SO3-200910-213621-7e91b5 0.0149 265.839400 -8.28740621E+003 15.8084 16.0290 20 (Pmn21) n - 1
REM
REM Run started: Thu, 10 Sep 2020 23:43:47 +0100 in /lustre/scratch/uccabz1/launch_tmp/launcher_2020-09-10-20-36-19-941067
REM CASTEP 20.1 from code version af48c487+ pr-geom-scf-spinfix Tue Jun 2 15:39:59 2020 +0100
REM Functional Perdew Burke Ernzerhof Relativity Koelling-Harmon Dispersion off
REM Cut-off 340.0000 eV Grid scale 1.7500 Gmax 16.5316 1/A FBSC none
REM MP grid 4 3 2 Offset 0.000 0.000 0.000 No. kpts 4 Spacing 0.07
REM Total runtime: 8415.17 s
REM Overall efficiency: 96.8571 %
REM
REM
REM
REM compiler GCC version 4.9.2
REM options -cpp -iprefix /lustre/shared/ucl/apps/gcc/4.9.2/bin/../lib/gcc/x86_64-unknown-linux-gnu/4.9.2/ -mtune=corei7 -march=x86-64 -g -Og
REM COMMAND_LINE
REM seed -142406319 -647256403 779016878 -59394391 -667205192 10333391 -1423626322 -2098612285 1010860983 1872616869 1082154995 -306471794
REM
REM S 3|1.8|5|6|7|30:31:32(qc=5)
REM O 2|1.5|12|13|15|20:21(qc=5)
REM Li 1|1.3|8|9|10|10U:20(qc=5)
REM Fe 3|2.2|2.0|1.0|8|9|10|40:41:32(qc=5)
REM 
CELL 1.54180    3.61519    6.09755   12.05959   90.00000   90.00000   90.00000
LATT -1
SFAC Li O  S  Fe 
Li     1 -0.2254220000000  0.3088030000000  0.1338460000000 1.0   0.01
Li     1  0.2254220000000  0.1911970000000 -0.3661540000000 1.0   0.01
Li     1  0.2254220000000 -0.1911970000000 -0.3661540000000 1.0   0.01
Li     1 -0.2254220000000 -0.3088030000000  0.1338460000000 1.0   0.01
Li     1 -0.2264330000000 -0.2216950000000 -0.2101330000000 1.0  -0.06
Li     1  0.2264330000000 -0.2783050000000  0.2898670000000 1.0  -0.06
Li     1  0.2264330000000  0.2783050000000  0.2898670000000 1.0  -0.06
Li     1 -0.2264330000000  0.2216950000000 -0.2101330000000 1.0  -0.06
O      2  0.2298800000000  0.2551980000000 -0.5264030000000 1.0   0.33
O      2 -0.2298800000000  0.2448020000000 -0.0264030000000 1.0   0.33
O      2 -0.2298800000000 -0.2448020000000 -0.0264030000000 1.0   0.33
O      2  0.2298800000000 -0.2551980000000 -0.5264030000000 1.0   0.33
O      2 -0.1978730000000  0.0000000000000 -0.3168530000000 1.0   0.07
O      2  0.1978730000000 -0.5000000000000  0.1831470000000 1.0   0.07
S      3 -0.2733630000000  0.0000000000000  0.2769190000000 1.0   0.30
S      3  0.2733630000000 -0.5000000000000 -0.2230810000000 1.0   0.30
Fe     4  0.2721660000000 -0.3050290000000 -0.0473360000000 1.0   3.48
Fe     4 -0.2721660000000 -0.1949710000000  0.4526640000000 1.0   3.48
Fe     4 -0.2721660000000  0.1949710000000  0.4526640000000 1.0   3.48
Fe     4  0.2721660000000  0.3050290000000 -0.0473360000000 1.0   3.48
END
