TITL LFSO-Li4Fe2S3O-200911-004103-4cdf73 -0.0502 379.346918 -7.75233408E+003 12.1629 12.7451 20 (Pc) n - 1
REM
REM Run started: Fri, 11 Sep 2020 18:32:55 +0100 in /lustre/scratch/uccabz1/launch_tmp/launcher_2020-09-10-23-41-00-043042
REM CASTEP 20.1 from code version af48c487+ pr-geom-scf-spinfix Tue Jun 2 15:39:59 2020 +0100
REM Functional Perdew Burke Ernzerhof Relativity Koelling-Harmon Dispersion off
REM Cut-off 340.0000 eV Grid scale 1.7500 Gmax 16.5316 1/A FBSC none
REM MP grid 4 2 3 Offset 0.000 0.000 0.000 No. kpts 8 Spacing 0.07
REM Total runtime: 71155.8 s
REM Overall efficiency: 90.3333 %
REM
REM
REM
REM compiler GCC version 4.9.2
REM options -cpp -iprefix /lustre/shared/ucl/apps/gcc/4.9.2/bin/../lib/gcc/x86_64-unknown-linux-gnu/4.9.2/ -mtune=corei7 -march=x86-64 -g -Og
REM COMMAND_LINE
REM seed 103281922 -256667958 -501188159 -207700688 1557529159 -1051317857 -1333804303 -473996936 725489170 328918850 -1660765776 -1482233699
REM
REM S 3|1.8|5|6|7|30:31:32(qc=5)
REM O 2|1.5|12|13|15|20:21(qc=5)
REM Li 1|1.3|8|9|10|10U:20(qc=5)
REM Fe 3|2.2|2.0|1.0|8|9|10|40:41:32(qc=5)
REM 
CELL 1.54180    7.10602   14.57155    6.41727   90.00000   90.00000  145.18758
LATT -1
SFAC Li O  S  Fe 
Li     1 -0.0189850000000  0.4238050000000 -0.0974320000000 1.0  -0.02
Li     1 -0.0189850000000 -0.0761950000000  0.0974320000000 1.0  -0.02
Li     1 -0.5740510000000  0.5387050000000 -0.3192600000000 1.0   0.06
Li     1 -0.5740510000000  0.0387050000000  0.3192600000000 1.0   0.06
Li     1  0.0964360000000 -0.1453620000000 -0.3490790000000 1.0  -0.05
Li     1  0.0964360000000 -0.6453620000000  0.3490790000000 1.0  -0.05
Li     1 -0.1192410000000 -0.2895050000000  0.2354890000000 1.0   0.02
Li     1 -0.1192410000000  0.2104950000000 -0.2354890000000 1.0   0.02
O      2 -0.0272480000000 -0.1352630000000 -0.6069960000000 1.0   0.14
O      2 -0.0272480000000  0.3647370000000  0.6069960000000 1.0   0.14
S      3 -0.2901570000000  0.0086430000000 -0.4827990000000 1.0   0.14
S      3 -0.2901570000000  0.5086430000000  0.4827990000000 1.0   0.14
S      3  0.5416410000000  0.2390160000000  0.1638390000000 1.0   0.12
S      3  0.5416410000000 -0.2609840000000 -0.1638390000000 1.0   0.12
S      3  0.3592540000000  0.4428670000000  0.0245550000000 1.0   0.08
S      3  0.3592540000000 -0.0571330000000 -0.0245550000000 1.0   0.08
Fe     4 -0.4842280000000 -0.1192640000000 -0.1853750000000 1.0   2.68
Fe     4 -0.4842280000000 -0.6192640000000  0.1853750000000 1.0   2.68
Fe     4 -0.2205310000000 -0.1160040000000  0.5400180000000 1.0   2.91
Fe     4 -0.2205310000000  0.3839960000000 -0.5400180000000 1.0   2.91
END
