TITL LFSO-LiFe3S2O3-200909-173338-b9c9e4 0.0169 535.190151 -9.42231033E+003 4.21087 10.6856 18 (R3) n - 1
REM
REM Run started: Thu, 10 Sep 2020 22:00:27 +0100 in /lustre/scratch/uccabz1/launch_tmp/launcher_2020-09-09-16-33-35-866251
REM CASTEP 20.1 from code version af48c487+ pr-geom-scf-spinfix Tue Jun 2 15:39:59 2020 +0100
REM Functional Perdew Burke Ernzerhof Relativity Koelling-Harmon Dispersion off
REM Cut-off 340.0000 eV Grid scale 1.7500 Gmax 16.5316 1/A FBSC none
REM MP grid 3 3 3 Offset 0.000 0.000 0.000 No. kpts 6 Spacing 0.07
REM Total runtime: 149370 s
REM Overall efficiency: 98.75 %
REM
REM
REM
REM compiler GCC version 4.9.2
REM options -cpp -iprefix /lustre/shared/ucl/apps/gcc/4.9.2/bin/../lib/gcc/x86_64-unknown-linux-gnu/4.9.2/ -mtune=corei7 -march=x86-64 -g -Og
REM COMMAND_LINE
REM seed -769935076 387960818 -56071397 975551574 1357880418 547378069 -405005571 902567864 203707017 -1961325298 271631291 6343322
REM
REM S 3|1.8|5|6|7|30:31:32(qc=5)
REM O 2|1.5|12|13|15|20:21(qc=5)
REM Li 1|1.3|8|9|10|10U:20(qc=5)
REM Fe 3|2.2|2.0|1.0|8|9|10|40:41:32(qc=5)
REM 
CELL 1.54180    9.76739    9.76739    9.76739   52.01376   52.01376   52.01376
LATT -1
SFAC Li O  S  Fe 
Li     1 -0.3950460000000 -0.3950460000000 -0.3950460000000 1.0  -0.02
Li     1  0.0567660000000  0.0567660000000  0.0567660000000 1.0  -0.01
O      2  0.0031160000000 -0.7422610000000 -0.1639630000000 1.0  -0.13
O      2 -0.1639630000000  0.0031160000000 -0.7422610000000 1.0  -0.13
O      2 -0.7422610000000 -0.1639630000000  0.0031160000000 1.0  -0.13
O      2  0.4768030000000  0.5185420000000 -0.1260070000000 1.0   0.04
O      2 -0.1260070000000  0.4768030000000  0.5185420000000 1.0   0.04
O      2  0.5185420000000 -0.1260070000000  0.4768030000000 1.0   0.04
S      3  0.0704810000000  0.0369370000000 -0.3485470000000 1.0   0.11
S      3 -0.3485470000000  0.0704810000000  0.0369370000000 1.0   0.11
S      3  0.0369370000000 -0.3485470000000  0.0704810000000 1.0   0.11
S      3  0.3542970000000  0.3542970000000  0.3542970000000 1.0  -0.04
Fe     4  0.0937120000000  0.4816520000000  0.3200130000000 1.0   2.20
Fe     4  0.3200130000000  0.0937120000000  0.4816520000000 1.0   2.20
Fe     4  0.4816520000000  0.3200130000000  0.0937120000000 1.0   2.20
Fe     4 -0.3418040000000  0.0021110000000  0.2794690000000 1.0  -0.78
Fe     4  0.2794690000000 -0.3418040000000  0.0021110000000 1.0  -0.78
Fe     4  0.0021110000000  0.2794690000000 -0.3418040000000 1.0  -0.78
END
