TITL LFSO-Li2Fe4S2O3-200912-130902-07a8be -0.2790 318.128723 -1.15495262E+004 3.50914 5.00123 22 (P3) n - 1
REM
REM Run started: Mon, 14 Sep 2020 04:16:23 +0100 in /lustre/scratch/uccabz1/launch_tmp/launcher_2020-09-12-12-09-00-508310
REM CASTEP 20.1 from code version af48c487+ pr-geom-scf-spinfix Tue Jun 2 15:39:59 2020 +0100
REM Functional Perdew Burke Ernzerhof Relativity Koelling-Harmon Dispersion off
REM Cut-off 340.0000 eV Grid scale 1.7500 Gmax 16.5316 1/A FBSC none
REM MP grid 3 3 3 Offset 0.000 0.000 0.000 No. kpts 8 Spacing 0.07
REM Total runtime: 149963 s
REM Overall efficiency: 91.4167 %
REM
REM
REM
REM compiler GCC version 4.9.2
REM options -cpp -iprefix /lustre/shared/ucl/apps/gcc/4.9.2/bin/../lib/gcc/x86_64-unknown-linux-gnu/4.9.2/ -mtune=corei7 -march=x86-64 -g -Og
REM COMMAND_LINE
REM seed -1942353966 -1544384007 992822970 1413078231 -241985384 895684589 1980646550 282388879 -1499583 -669091799 1103280001 -438642128
REM
REM S 3|1.8|5|6|7|30:31:32(qc=5)
REM O 2|1.5|12|13|15|20:21(qc=5)
REM Li 1|1.3|8|9|10|10U:20(qc=5)
REM Fe 3|2.2|2.0|1.0|8|9|10|40:41:32(qc=5)
REM 
CELL 1.54180    5.77644    7.97455    7.97455  120.00000   90.00000   90.00000
LATT -1
SFAC Li O  S  Fe 
Li     1  0.3184850000000  0.0167580000000 -0.3792560000000 1.0  -0.00
Li     1  0.3184850000000 -0.3960140000000 -0.0167580000000 1.0  -0.00
Li     1  0.3184850000000  0.3792560000000  0.3960140000000 1.0  -0.00
Li     1  0.4984840000000  0.0000000000000 -0.0000000000000 1.0   0.00
O      2 -0.3964150000000  0.5535540000000  0.4477340000000 1.0  -0.02
O      2 -0.3964150000000 -0.1058210000000 -0.5535540000000 1.0  -0.02
O      2 -0.3964150000000 -0.4477340000000  0.1058210000000 1.0  -0.02
O      2  0.5846910000000  0.1542310000000  0.2583810000000 1.0  -0.01
O      2  0.5846910000000  0.1041500000000 -0.1542310000000 1.0  -0.01
O      2  0.5846910000000 -0.2583810000000 -0.1041500000000 1.0  -0.01
S      3  0.0168460000000 -0.2525480000000 -0.3821340000000 1.0  -0.02
S      3  0.0168460000000 -0.1295860000000  0.2525480000000 1.0  -0.02
S      3  0.0168460000000  0.3821340000000  0.1295860000000 1.0  -0.02
S      3 -0.7021010000000  0.3333330000000 -0.3333330000000 1.0   0.07
Fe     4 -0.2565390000000  0.0818610000000  0.4057100000000 1.0   0.39
Fe     4 -0.2565390000000  0.3238490000000 -0.0818610000000 1.0   0.39
Fe     4 -0.2565390000000 -0.4057100000000 -0.3238490000000 1.0   0.39
Fe     4 -0.2174360000000 -0.0288950000000 -0.3452780000000 1.0  -0.06
Fe     4 -0.2174360000000 -0.3163830000000  0.0288950000000 1.0  -0.06
Fe     4 -0.2174360000000  0.3452780000000  0.3163830000000 1.0  -0.06
Fe     4 -0.1912030000000 -0.3333330000000  0.3333330000000 1.0  -0.01
Fe     4 -0.0780320000000  0.3333330000000 -0.3333330000000 1.0   2.58
END
