TITL LFSO-Li4Fe3S4O-200926-110028-72cc45 -0.0353 186.687850 -5.04389330E+003 -7.96310 8.33799 12 (P-4) n - 1
REM
REM Run started: Sat, 26 Sep 2020 12:53:32 +0100 in /lustre/scratch/uccabz1/launch_tmp/launcher_2020-09-26-10-00-26-643870
REM CASTEP 20.1 from code version af48c487+ pr-geom-scf-spinfix Tue Jun 2 15:39:59 2020 +0100
REM Functional Perdew Burke Ernzerhof Relativity Koelling-Harmon Dispersion off
REM Cut-off 340.0000 eV Grid scale 1.7500 Gmax 16.5316 1/A FBSC none
REM MP grid 5 2 2 Offset 0.000 0.000 0.000 No. kpts 3 Spacing 0.07
REM Total runtime: 7038.43 s
REM Overall efficiency: 90.4286 %
REM
REM
REM
REM compiler GCC version 4.9.2
REM options -cpp -iprefix /lustre/shared/ucl/apps/gcc/4.9.2/bin/../lib/gcc/x86_64-unknown-linux-gnu/4.9.2/ -mtune=corei7 -march=x86-64 -g -Og
REM COMMAND_LINE
REM seed 1505407660 1121896063 -439457564 -55420551 529319220 605571587 1111549471 -966449572 -757975925 -1126176746 566670529 -939572677
REM
REM S 3|1.8|5|6|7|30:31:32(qc=5)
REM O 2|1.5|12|13|15|20:21(qc=5)
REM Li 1|1.3|8|9|10|10U:20(qc=5)
REM Fe 3|2.2|2.0|1.0|8|9|10|40:41:32(qc=5)
REM 
CELL 1.54180    3.39644    7.41389    7.41389   90.00000   90.00000   90.00000
LATT -1
SFAC Li O  S  Fe 
Li     1 -0.2422730000000  0.1612810000000  0.1590020000000 1.0   0.04
Li     1 -0.2422730000000 -0.1612810000000 -0.1590020000000 1.0   0.04
Li     1  0.2422730000000  0.1590020000000 -0.1612810000000 1.0   0.04
Li     1  0.2422730000000 -0.1590020000000  0.1612810000000 1.0   0.04
O      2  0.0000000000000  0.0000000000000 -0.0000000000000 1.0  -0.04
S      3 -0.2377490000000  0.4563910000000 -0.1985320000000 1.0  -0.06
S      3 -0.2377490000000 -0.4563910000000  0.1985320000000 1.0  -0.06
S      3  0.2377490000000 -0.1985320000000 -0.4563910000000 1.0  -0.06
S      3  0.2377490000000  0.1985320000000  0.4563910000000 1.0  -0.06
Fe     4  0.2529890000000 -0.5000000000000 -0.0000000000000 1.0  -2.24
Fe     4 -0.2529890000000  0.0000000000000  0.5000000000000 1.0  -2.24
Fe     4  0.0000000000000 -0.5000000000000  0.5000000000000 1.0  -3.38
END
