TITL LFSO-Li3Fe3S4O2-200929-142327-a4a18e -0.0432 375.729054 -1.05621509E+004 10.5949 11.1365 24 (P2) n - 1
REM
REM Run started: Wed, 30 Sep 2020 20:02:24 +0100 in /lustre/scratch/uccabz1/launch_tmp/launcher_2020-09-30-08-32-18-816383
REM CASTEP 20.1 from code version af48c487+ pr-geom-scf-spinfix Tue Jun 2 15:39:59 2020 +0100
REM Functional Perdew Burke Ernzerhof Relativity Koelling-Harmon Dispersion off
REM Cut-off 340.0000 eV Grid scale 1.7500 Gmax 16.5316 1/A FBSC none
REM MP grid 5 2 2 Offset 0.000 0.000 0.000 No. kpts 6 Spacing 0.07
REM Total runtime: 100598 s
REM Overall efficiency: 98.0769 %
REM
REM
REM
REM compiler GCC version 4.9.2
REM options -cpp -iprefix /lustre/shared/ucl/apps/gcc/4.9.2/bin/../lib/gcc/x86_64-unknown-linux-gnu/4.9.2/ -mtune=corei7 -march=x86-64 -g -Og
REM COMMAND_LINE
REM seed 488564392 -179640511 -559711912 -233004388 1791452668 -1489532813 86222528 -768104081 -103018065 1388134083 -1295326989 1628535728
REM
REM S 3|1.8|5|6|7|30:31:32(qc=5)
REM O 2|1.5|12|13|15|20:21(qc=5)
REM Li 1|1.3|8|9|10|10U:20(qc=5)
REM Fe 3|2.2|2.0|1.0|8|9|10|40:41:32(qc=5)
REM 
CELL 1.54180    3.27031   10.10081   11.40093   93.90751   90.00000   90.00000
LATT -1
SFAC Li O  S  Fe 
Li     1 -0.4663940000000 -0.1549980000000 -0.2114240000000 1.0   0.01
Li     1 -0.4663940000000  0.1549980000000  0.2114240000000 1.0   0.01
Li     1  0.1418770000000  0.2125170000000  0.4127900000000 1.0   0.01
Li     1  0.1418770000000 -0.2125170000000 -0.4127900000000 1.0   0.01
Li     1 -0.1321840000000  0.1205310000000 -0.1649640000000 1.0  -0.01
Li     1 -0.1321840000000 -0.1205310000000  0.1649640000000 1.0  -0.01
O      2 -0.1244770000000  0.3238470000000 -0.1368920000000 1.0   0.10
O      2 -0.1244770000000 -0.3238470000000  0.1368920000000 1.0   0.10
O      2  0.1398070000000  0.0676720000000  0.2992780000000 1.0   0.06
O      2  0.1398070000000 -0.0676720000000 -0.2992780000000 1.0   0.06
S      3  0.3103810000000 -0.4313860000000 -0.3732520000000 1.0   0.21
S      3  0.3103810000000  0.4313860000000  0.3732520000000 1.0   0.21
S      3 -0.6056230000000  0.1021840000000  0.0001650000000 1.0  -0.00
S      3 -0.6056230000000 -0.1021840000000 -0.0001650000000 1.0  -0.00
S      3  0.3792750000000 -0.4091410000000 -0.0939400000000 1.0  -0.02
S      3  0.3792750000000  0.4091410000000  0.0939400000000 1.0  -0.02
S      3 -0.2535310000000  0.1874560000000 -0.4110420000000 1.0  -0.02
S      3 -0.2535310000000 -0.1874560000000  0.4110420000000 1.0  -0.02
Fe     4  0.3739860000000  0.3791890000000 -0.0921850000000 1.0   1.08
Fe     4  0.3739860000000 -0.3791890000000  0.0921850000000 1.0   1.08
Fe     4  0.2459510000000  0.0451250000000 -0.4125000000000 1.0   0.88
Fe     4  0.2459510000000 -0.0451250000000  0.4125000000000 1.0   0.88
Fe     4 -0.1952420000000  0.4175600000000 -0.4321110000000 1.0   3.00
Fe     4 -0.1952420000000 -0.4175600000000  0.4321110000000 1.0   3.00
END
