TITL LFSO-Li4Fe2S3O-200911-011709-07fa6b -0.0296 163.981195 -3.87457220E+003 -0.935935E-03 0.103133E-02 10 (I222) n - 1
REM
REM Run started: Fri, 11 Sep 2020 04:00:15 +0100 in /lustre/scratch/uccabz1/launch_tmp/launcher_2020-09-11-00-17-07-699291
REM CASTEP 20.1 from code version af48c487+ pr-geom-scf-spinfix Tue Jun 2 15:39:59 2020 +0100
REM Functional Perdew Burke Ernzerhof Relativity Koelling-Harmon Dispersion off
REM Cut-off 340.0000 eV Grid scale 1.7500 Gmax 16.5316 1/A FBSC none
REM MP grid 4 3 3 Offset 0.000 0.000 0.000 No. kpts 12 Spacing 0.07
REM Total runtime: 10157.1 s
REM Overall efficiency: 96 %
REM
REM
REM
REM compiler GCC version 4.9.2
REM options -cpp -iprefix /lustre/shared/ucl/apps/gcc/4.9.2/bin/../lib/gcc/x86_64-unknown-linux-gnu/4.9.2/ -mtune=corei7 -march=x86-64 -g -Og
REM COMMAND_LINE
REM seed -1176648543 -69747323 -1686018423 -932572337 -939821922 -1338190474 2003332935 131209938 -1584514357 -898592961 40982997 1717120360
REM
REM S 3|1.8|5|6|7|30:31:32(qc=5)
REM O 2|1.5|12|13|15|20:21(qc=5)
REM Li 1|1.3|8|9|10|10U:20(qc=5)
REM Fe 3|2.2|2.0|1.0|8|9|10|40:41:32(qc=5)
REM 
CELL 1.54180    3.96523    7.24031    7.24031   56.08120   74.10771   74.10771
LATT -1
SFAC Li O  S  Fe 
Li     1 -0.3891360000000  0.4290310000000 -0.2422220000000 1.0
Li     1 -0.2023280000000 -0.4290310000000  0.2422220000000 1.0
Li     1  0.2023280000000 -0.2422220000000  0.4290310000000 1.0
Li     1  0.3891360000000  0.2422220000000 -0.4290310000000 1.0
O      2  0.5000000000000 -0.5000000000000  0.5000000000000 1.0
S      3 -0.2776010000000 -0.2223990000000 -0.2223990000000 1.0
S      3  0.2776010000000  0.2223990000000  0.2223990000000 1.0
S      3  0.0000000000000  0.0000000000000  0.0000000000000 1.0
Fe     4 -0.1646040000000  0.1646040000000  0.1646040000000 1.0
Fe     4  0.1646040000000 -0.1646040000000 -0.1646040000000 1.0
END
