TITL LFSO-Li4Fe2SO4-200910-143326-063fe2 0.0724 294.430026 -9.16324939E+003 15.6330 15.9503 22 (P-1) n - 1
REM
REM Run started: Fri, 11 Sep 2020 05:18:15 +0100 in /lustre/scratch/uccabz1/launch_tmp/launcher_2020-09-10-13-33-25-123329
REM CASTEP 20.1 from code version af48c487+ pr-geom-scf-spinfix Tue Jun 2 15:39:59 2020 +0100
REM Functional Perdew Burke Ernzerhof Relativity Koelling-Harmon Dispersion off
REM Cut-off 340.0000 eV Grid scale 1.7500 Gmax 16.5316 1/A FBSC none
REM MP grid 3 3 2 Offset 0.000 0.000 0.000 No. kpts 9 Spacing 0.07
REM Total runtime: 57520.3 s
REM Overall efficiency: 98.5 %
REM
REM
REM
REM compiler GCC version 4.9.2
REM options -cpp -iprefix /lustre/shared/ucl/apps/gcc/4.9.2/bin/../lib/gcc/x86_64-unknown-linux-gnu/4.9.2/ -mtune=corei7 -march=x86-64 -g -Og
REM COMMAND_LINE
REM seed 2008509729 -1266400317 1074377019 1082201768 1761867687 585268404 -1139333578 1007406326 -310365703 -1616952748 -18132145 654914573
REM
REM S 3|1.8|5|6|7|30:31:32(qc=5)
REM O 2|1.5|12|13|15|20:21(qc=5)
REM Li 1|1.3|8|9|10|10U:20(qc=5)
REM Fe 3|2.2|2.0|1.0|8|9|10|40:41:32(qc=5)
REM 
CELL 1.54180    6.22093    6.62993    7.71706   73.89180   97.71407   79.17230
LATT -1
SFAC Li O  S  Fe 
Li     1  0.3244400000000  0.2102470000000 -0.1900900000000 1.0   0.01
Li     1 -0.3244400000000 -0.2102470000000  0.1900900000000 1.0   0.01
Li     1  0.0566990000000 -0.0759680000000  0.1601360000000 1.0   0.03
Li     1 -0.0566990000000  0.0759680000000 -0.1601360000000 1.0   0.03
Li     1 -0.3201580000000  0.4607800000000 -0.1548340000000 1.0  -0.02
Li     1  0.3201580000000 -0.4607800000000  0.1548340000000 1.0  -0.02
Li     1  0.1880950000000 -0.4817960000000 -0.4586950000000 1.0  -0.01
Li     1 -0.1880950000000  0.4817960000000  0.4586950000000 1.0  -0.01
O      2  0.4239120000000 -0.0350820000000 -0.2989440000000 1.0   0.16
O      2 -0.4239120000000  0.0350820000000  0.2989440000000 1.0   0.16
O      2  0.0369910000000  0.2733790000000  0.6344000000000 1.0   0.28
O      2 -0.0369910000000 -0.2733790000000 -0.6344000000000 1.0   0.28
O      2  0.3799420000000  0.4936440000000 -0.2480710000000 1.0   0.27
O      2 -0.3799420000000 -0.4936440000000  0.2480710000000 1.0   0.27
O      2  0.1667440000000 -0.1929330000000 -0.0150250000000 1.0   0.32
O      2 -0.1667440000000  0.1929330000000  0.0150250000000 1.0   0.32
S      3 -0.2884090000000 -0.1525500000000 -0.2452260000000 1.0   0.11
S      3  0.2884090000000  0.1525500000000  0.2452260000000 1.0   0.11
Fe     4  0.2400290000000 -0.2554880000000 -0.2156060000000 1.0   3.55
Fe     4 -0.2400290000000  0.2554880000000  0.2156060000000 1.0   3.55
Fe     4 -0.1391710000000 -0.1148440000000 -0.4940120000000 1.0   3.12
Fe     4  0.1391710000000  0.1148440000000  0.4940120000000 1.0   3.12
END
