TITL LFSO-Li4Fe2S3O2-200911-085003-2f0f88 0.0254 442.294124 -8.62778847E+003 10.2561 16.1666 22 (P3) n - 1
REM
REM Run started: Sat, 12 Sep 2020 02:07:37 +0100 in /lustre/scratch/uccabz1/launch_tmp/launcher_2020-09-11-07-50-01-729090
REM CASTEP 20.1 from code version af48c487+ pr-geom-scf-spinfix Tue Jun 2 15:39:59 2020 +0100
REM Functional Perdew Burke Ernzerhof Relativity Koelling-Harmon Dispersion off
REM Cut-off 340.0000 eV Grid scale 1.7500 Gmax 16.5316 1/A FBSC none
REM MP grid 3 2 2 Offset 0.000 0.000 0.000 No. kpts 6 Spacing 0.07
REM Total runtime: 62497.6 s
REM Overall efficiency: 96.3636 %
REM
REM
REM
REM compiler GCC version 4.9.2
REM options -cpp -iprefix /lustre/shared/ucl/apps/gcc/4.9.2/bin/../lib/gcc/x86_64-unknown-linux-gnu/4.9.2/ -mtune=corei7 -march=x86-64 -g -Og
REM COMMAND_LINE
REM seed 167490761 -1530898496 -1227469077 1693812122 -64783265 1095106915 739492477 302728821 1080181332 -48810209 -1169797116 686119440
REM
REM S 3|1.8|5|6|7|30:31:32(qc=5)
REM O 2|1.5|12|13|15|20:21(qc=5)
REM Li 1|1.3|8|9|10|10U:20(qc=5)
REM Fe 3|2.2|2.0|1.0|8|9|10|40:41:32(qc=5)
REM 
CELL 1.54180    5.46155    9.67013    9.67013  120.00000   90.00000   90.00000
LATT -1
SFAC Li O  S  Fe 
Li     1  0.2880240000000 -0.3151740000000 -0.3167980000000 1.0  -0.01
Li     1  0.2880240000000  0.3167980000000  0.0016240000000 1.0  -0.01
Li     1  0.2880240000000 -0.0016240000000  0.3151740000000 1.0  -0.01
Li     1  0.3822660000000 -0.1666180000000 -0.4970500000000 1.0   0.01
Li     1  0.3822660000000  0.4970500000000  0.3304320000000 1.0   0.01
Li     1  0.3822660000000 -0.3304320000000  0.1666180000000 1.0   0.01
Li     1  0.6518300000000  0.3333330000000 -0.3333330000000 1.0   0.17
Li     1 -0.0710530000000 -0.0000000000000 -0.0000000000000 1.0   0.08
O      2 -0.4859260000000  0.4738250000000  0.1354900000000 1.0   0.35
O      2 -0.4859260000000 -0.1354900000000  0.3383360000000 1.0   0.35
O      2 -0.4859260000000 -0.3383360000000 -0.4738250000000 1.0   0.35
O      2 -0.0348410000000 -0.3333330000000  0.3333330000000 1.0   0.38
S      3  0.0091650000000  0.4532850000000 -0.0867350000000 1.0  -0.07
S      3  0.0091650000000  0.0867350000000 -0.4599800000000 1.0  -0.07
S      3  0.0091650000000  0.4599800000000 -0.4532850000000 1.0  -0.07
S      3  0.0105590000000  0.2742180000000  0.1618920000000 1.0   0.29
S      3  0.0105590000000 -0.1618920000000  0.1123260000000 1.0   0.29
S      3  0.0105590000000 -0.1123260000000 -0.2742180000000 1.0   0.29
Fe     4 -0.1546370000000 -0.1387150000000  0.3304510000000 1.0   3.49
Fe     4 -0.1546370000000 -0.3304510000000 -0.4691660000000 1.0   3.49
Fe     4 -0.1546370000000  0.4691660000000  0.1387150000000 1.0   3.49
Fe     4  0.1099470000000  0.3333330000000 -0.3333330000000 1.0  -2.53
END
