TITL LFSO-LiFe3S2O3-200909-161157-a22fb8 0.3893 379.041397 -9.42278790E+003 12.4226 14.7056 18 (Imm2) n - 1
REM
REM Run started: Thu, 10 Sep 2020 14:35:23 +0100 in /lustre/scratch/uccabz1/launch_tmp/launcher_2020-09-10-09-39-06-123375
REM CASTEP 20.1 from code version af48c487+ pr-geom-scf-spinfix Tue Jun 2 15:39:59 2020 +0100
REM Functional Perdew Burke Ernzerhof Relativity Koelling-Harmon Dispersion off
REM Cut-off 340.0000 eV Grid scale 1.7500 Gmax 16.5316 1/A FBSC none
REM MP grid 3 3 3 Offset 0.000 0.000 0.000 No. kpts 8 Spacing 0.07
REM Total runtime: 63346 s
REM Overall efficiency: 98.4286 %
REM
REM
REM
REM compiler GCC version 4.9.2
REM options -cpp -iprefix /lustre/shared/ucl/apps/gcc/4.9.2/bin/../lib/gcc/x86_64-unknown-linux-gnu/4.9.2/ -mtune=corei7 -march=x86-64 -g -Og
REM COMMAND_LINE
REM seed 355178554 427215023 753070635 719205980 -1871194794 1198933946 1044643646 1575064756 -1500658203 -1320153975 1143839729 -451990344
REM
REM S 3|1.8|5|6|7|30:31:32(qc=5)
REM O 2|1.5|12|13|15|20:21(qc=5)
REM Li 1|1.3|8|9|10|10U:20(qc=5)
REM Fe 3|2.2|2.0|1.0|8|9|10|40:41:32(qc=5)
REM 
CELL 1.54180   11.89094    8.22329    8.22329   53.31589   43.69696   43.69696
LATT -1
SFAC Li O  S  Fe 
Li     1  0.3293390000000 -0.5457640000000 -0.1129130000000 1.0  -0.04
Li     1 -0.3293390000000  0.1129130000000 -0.4542360000000 1.0  -0.04
O      2  0.2208530000000 -0.4118800000000 -0.2761720000000 1.0  -0.02
O      2 -0.2208530000000  0.2761720000000  0.4118800000000 1.0  -0.02
O      2 -0.5328020000000  0.5881200000000 -0.2761720000000 1.0  -0.02
O      2  0.5328020000000 -0.7238280000000  0.4118800000000 1.0  -0.02
O      2  0.2447090000000  0.0930340000000 -0.0930340000000 1.0   0.34
O      2 -0.2447090000000  0.0930340000000 -0.0930340000000 1.0   0.34
S      3  0.1362120000000 -0.0135130000000  0.4074500000000 1.0   0.04
S      3 -0.1362120000000 -0.4074500000000  0.0135130000000 1.0   0.04
S      3 -0.5301500000000 -0.0135130000000  0.4074500000000 1.0   0.04
S      3  0.5301500000000 -0.4074500000000  0.0135130000000 1.0   0.04
Fe     4  0.3966320000000 -0.1703220000000 -0.2053830000000 1.0   2.60
Fe     4 -0.3966320000000  0.2053830000000  0.1703220000000 1.0   2.60
Fe     4 -0.0209270000000 -0.1703220000000 -0.2053830000000 1.0   2.60
Fe     4  0.0209270000000  0.2053830000000  0.1703220000000 1.0   2.60
Fe     4  0.3717030000000 -0.3979510000000  0.3979510000000 1.0  -2.76
Fe     4 -0.3717030000000  0.6020490000000  0.3979510000000 1.0  -2.76
END
