TITL LFSO-Li2Fe3S2O2-200921-013646-cf26bb -0.0752 123.049974 -4.47310380E+003 -0.435710E-05 0.179031E-03 9 (R3m) n - 1
REM
REM Run started: Mon, 21 Sep 2020 02:27:41 +0100 in /lustre/scratch/uccabz1/launch_tmp/launcher_2020-09-21-00-36-44-758004
REM CASTEP 20.1 from code version af48c487+ pr-geom-scf-spinfix Tue Jun 2 15:39:59 2020 +0100
REM Functional Perdew Burke Ernzerhof Relativity Koelling-Harmon Dispersion off
REM Cut-off 340.0000 eV Grid scale 1.7500 Gmax 16.5316 1/A FBSC none
REM MP grid 4 4 3 Offset 0.000 0.000 0.000 No. kpts 16 Spacing 0.07
REM Total runtime: 3099.23 s
REM Overall efficiency: 92.6667 %
REM
REM
REM
REM compiler GCC version 4.9.2
REM options -cpp -iprefix /lustre/shared/ucl/apps/gcc/4.9.2/bin/../lib/gcc/x86_64-unknown-linux-gnu/4.9.2/ -mtune=corei7 -march=x86-64 -g -Og
REM COMMAND_LINE
REM seed -251606089 -515531098 160798045 -994996594 -1504387660 317124050 657885106 -1494625922 -291265086 1632383986 -1239103286 716138176
REM
REM S 3|1.8|5|6|7|30:31:32(qc=5)
REM O 2|1.5|12|13|15|20:21(qc=5)
REM Li 1|1.3|8|9|10|10U:20(qc=5)
REM Fe 3|2.2|2.0|1.0|8|9|10|40:41:32(qc=5)
REM 
CELL 1.54180    5.15411    5.15411    6.12070   65.09983   65.09983   60.00000
LATT -1
SFAC Li O  S  Fe 
Li     1 -0.0388040000000 -0.0388040000000  0.1164130000000 1.0
Li     1 -0.2430060000000 -0.2430060000000 -0.2709830000000 1.0
O      2  0.2821480000000  0.2821480000000  0.1535560000000 1.0
O      2 -0.3647660000000 -0.3647660000000  0.0942990000000 1.0
S      3  0.4530300000000  0.4530300000000 -0.3590910000000 1.0
S      3  0.1192460000000  0.1192460000000 -0.3577380000000 1.0
Fe     4 -0.1305690000000 -0.6071600000000  0.3448900000000 1.0
Fe     4 -0.6071600000000  0.3928400000000  0.3448900000000 1.0
Fe     4  0.3928400000000 -0.1305690000000  0.3448900000000 1.0
END
