TITL LFSO-Li4FeSO2-200910-083607-4425df 0.0199 114.115347 -2.83898936E+003 0.178228E-01 0.201243E-01 8 (P3) n - 1
REM
REM Run started: Thu, 10 Sep 2020 09:38:34 +0100 in /lustre/scratch/uccabz1/launch_tmp/launcher_2020-09-10-07-36-05-608801
REM CASTEP 20.1 from code version af48c487+ pr-geom-scf-spinfix Tue Jun 2 15:39:59 2020 +0100
REM Functional Perdew Burke Ernzerhof Relativity Koelling-Harmon Dispersion off
REM Cut-off 340.0000 eV Grid scale 1.7500 Gmax 16.5316 1/A FBSC none
REM MP grid 5 5 2 Offset 0.000 0.000 0.000 No. kpts 9 Spacing 0.07
REM Total runtime: 4254.07 s
REM Overall efficiency: 95.1667 %
REM
REM
REM
REM compiler GCC version 4.9.2
REM options -cpp -iprefix /lustre/shared/ucl/apps/gcc/4.9.2/bin/../lib/gcc/x86_64-unknown-linux-gnu/4.9.2/ -mtune=corei7 -march=x86-64 -g -Og
REM COMMAND_LINE
REM seed -1464613328 818133891 1295649897 -1539970413 1975414902 1598238581 642892367 -1719582338 -1011972551 -993770967 -380001551 1566122788
REM
REM S 3|1.8|5|6|7|30:31:32(qc=5)
REM O 2|1.5|12|13|15|20:21(qc=5)
REM Li 1|1.3|8|9|10|10U:20(qc=5)
REM Fe 3|2.2|2.0|1.0|8|9|10|40:41:32(qc=5)
REM 
CELL 1.54180    3.91960    3.91960    8.57687   90.00000   90.00000  120.00000
LATT -1
SFAC Li O  S  Fe 
Li     1  0.3253850000000  0.3170460000000  0.3156650000000 1.0   0.00
Li     1 -0.0083380000000 -0.3253850000000  0.3156650000000 1.0   0.00
Li     1 -0.3170460000000  0.0083380000000  0.3156650000000 1.0   0.00
Li     1 -0.3333330000000  0.3333330000000 -0.3595030000000 1.0   0.00
O      2  0.0000000000000 -0.0000000000000 -0.5405510000000 1.0  -0.00
O      2  0.3333330000000 -0.3333330000000  0.1949560000000 1.0   0.00
S      3 -0.3333330000000  0.3333330000000 -0.0783940000000 1.0  -0.00
Fe     4  0.3333330000000 -0.3333330000000 -0.0256970000000 1.0   0.02
END
