TITL LFSO-Li3Fe3S5O-200929-100638-e129fb -0.1691 405.669825 -5.14493850E+003 -4.15133 4.78427 12 (P3) n - 1
REM
REM Run started: Tue, 29 Sep 2020 18:33:46 +0100 in /lustre/scratch/uccabz1/launch_tmp/launcher_2020-09-29-09-06-37-267293
REM CASTEP 20.1 from code version af48c487+ pr-geom-scf-spinfix Tue Jun 2 15:39:59 2020 +0100
REM Functional Perdew Burke Ernzerhof Relativity Koelling-Harmon Dispersion off
REM Cut-off 340.0000 eV Grid scale 1.7500 Gmax 16.5316 1/A FBSC none
REM MP grid 4 4 1 Offset 0.000 0.000 0.000 No. kpts 8 Spacing 0.07
REM Total runtime: 34483.4 s
REM Overall efficiency: 97.7692 %
REM
REM
REM
REM compiler GCC version 4.9.2
REM options -cpp -iprefix /lustre/shared/ucl/apps/gcc/4.9.2/bin/../lib/gcc/x86_64-unknown-linux-gnu/4.9.2/ -mtune=corei7 -march=x86-64 -g -Og
REM COMMAND_LINE
REM seed 223107554 1600809424 952823327 -524128672 -1262445004 220648184 2089714314 -486190598 -1366801178 -984755016 -782647440 1749969334
REM
REM S 3|1.8|5|6|7|30:31:32(qc=5)
REM O 2|1.5|12|13|15|20:21(qc=5)
REM Li 1|1.3|8|9|10|10U:20(qc=5)
REM Fe 3|2.2|2.0|1.0|8|9|10|40:41:32(qc=5)
REM 
CELL 1.54180    4.87579    4.87579   19.70386   90.00000   90.00000  120.00000
LATT -1
SFAC Li O  S  Fe 
Li     1  0.0143430000000  0.3582130000000 -0.0733030000000 1.0   0.03
Li     1 -0.3582130000000 -0.3438700000000 -0.0733030000000 1.0   0.03
Li     1  0.3438700000000 -0.0143430000000 -0.0733030000000 1.0   0.03
O      2  0.3333330000000 -0.3333330000000 -0.1463880000000 1.0  -0.04
S      3 -0.3273760000000 -0.0550490000000  0.0193930000000 1.0   0.00
S      3  0.0550490000000 -0.2723270000000  0.0193930000000 1.0   0.00
S      3  0.2723270000000  0.3273760000000  0.0193930000000 1.0   0.00
S      3 -0.3333330000000  0.3333330000000  0.6965210000000 1.0  -0.02
S      3 -0.0000000000000  0.0000000000000 -0.1999990000000 1.0   0.02
Fe     4  0.4489270000000  0.4498050000000 -0.2186700000000 1.0  -1.40
Fe     4 -0.4498050000000 -0.0008780000000 -0.2186700000000 1.0  -1.40
Fe     4  0.0008780000000 -0.4489270000000 -0.2186700000000 1.0  -1.40
END
