TITL LFSO-Li2Fe4S4O-200911-212834-ec4313 0.0521 244.763642 -5.50747455E+003 -11.4257 11.8141 11 (P-1) n - 1
REM
REM Run started: Sat, 12 Sep 2020 05:44:56 +0100 in /lustre/scratch/uccabz1/launch_tmp/launcher_2020-09-11-20-28-31-959446
REM CASTEP 20.1 from code version af48c487+ pr-geom-scf-spinfix Tue Jun 2 15:39:59 2020 +0100
REM Functional Perdew Burke Ernzerhof Relativity Koelling-Harmon Dispersion off
REM Cut-off 340.0000 eV Grid scale 1.7500 Gmax 16.5316 1/A FBSC none
REM MP grid 3 3 3 Offset 0.000 0.000 0.000 No. kpts 14 Spacing 0.07
REM Total runtime: 33299 s
REM Overall efficiency: 98 %
REM
REM
REM
REM compiler GCC version 4.9.2
REM options -cpp -iprefix /lustre/shared/ucl/apps/gcc/4.9.2/bin/../lib/gcc/x86_64-unknown-linux-gnu/4.9.2/ -mtune=corei7 -march=x86-64 -g -Og
REM COMMAND_LINE
REM seed -1490873277 1393073082 -1837990292 -1486008416 -1224278335 -762774134 -2048411885 1658364731 1631753260 -1661626820 1270010015 2097196024
REM
REM S 3|1.8|5|6|7|30:31:32(qc=5)
REM O 2|1.5|12|13|15|20:21(qc=5)
REM Li 1|1.3|8|9|10|10U:20(qc=5)
REM Fe 3|2.2|2.0|1.0|8|9|10|40:41:32(qc=5)
REM 
CELL 1.54180    6.08615    7.10618    7.31795  108.33618   92.29905   55.82553
LATT -1
SFAC Li O  S  Fe 
Li     1  0.2233280000000  0.3221360000000  0.2499080000000 1.0   0.06
Li     1 -0.2233280000000 -0.3221360000000 -0.2499080000000 1.0   0.06
O      2  0.0000000000000  0.5000000000000 -0.5000000000000 1.0  -0.33
S      3 -0.6448220000000 -0.1865240000000 -0.4334990000000 1.0  -0.15
S      3  0.6448220000000  0.1865240000000  0.4334990000000 1.0  -0.15
S      3  0.1151080000000 -0.3204240000000 -0.0648050000000 1.0  -0.11
S      3 -0.1151080000000  0.3204240000000  0.0648050000000 1.0  -0.11
Fe     4  0.2608260000000 -0.4446910000000 -0.4016610000000 1.0  -2.93
Fe     4 -0.2608260000000  0.4446910000000  0.4016610000000 1.0  -2.93
Fe     4  0.1410680000000 -0.0545770000000 -0.1443880000000 1.0  -2.41
Fe     4 -0.1410680000000  0.0545770000000  0.1443880000000 1.0  -2.41
END
