TITL LFSO-Li3Fe3S4O2-201002-154501-27abc5 -0.0056 192.800809 -5.27827808E+003 5.68136 6.52344 12 (F222) n - 1
REM
REM Run started: Fri, 02 Oct 2020 16:50:09 +0100 in /lustre/scratch/uccabz1/launch_tmp/launcher_2020-10-02-14-44-59-942569
REM CASTEP 20.1 from code version af48c487+ pr-geom-scf-spinfix Tue Jun 2 15:39:59 2020 +0100
REM Functional Perdew Burke Ernzerhof Relativity Koelling-Harmon Dispersion off
REM Cut-off 340.0000 eV Grid scale 1.7500 Gmax 16.5316 1/A FBSC none
REM MP grid 4 4 2 Offset 0.000 0.000 0.000 No. kpts 10 Spacing 0.07
REM Total runtime: 5435.67 s
REM Overall efficiency: 77.6 %
REM
REM
REM
REM compiler GCC version 4.9.2
REM options -cpp -iprefix /lustre/shared/ucl/apps/gcc/4.9.2/bin/../lib/gcc/x86_64-unknown-linux-gnu/4.9.2/ -mtune=corei7 -march=x86-64 -g -Og
REM COMMAND_LINE
REM seed -2113134743 -1764891902 -1762084686 -891792577 -2027499569 161506246 2094766694 -1719440169 -1926880019 -458738565 -574766735 -1147870694
REM
REM S 3|1.8|5|6|7|30:31:32(qc=5)
REM O 2|1.5|12|13|15|20:21(qc=5)
REM Li 1|1.3|8|9|10|10U:20(qc=5)
REM Fe 3|2.2|2.0|1.0|8|9|10|40:41:32(qc=5)
REM 
CELL 1.54180    4.76086    4.76086    9.13846  104.82608  104.82608   91.01179
LATT -1
SFAC Li O  S  Fe 
Li     1  0.0950350000000 -0.0950350000000  0.5000000000000 1.0   0.01
Li     1  0.4049650000000 -0.4049650000000 -0.5000000000000 1.0   0.01
Li     1 -0.2500000000000  0.2500000000000  0.5000000000000 1.0  -0.01
O      2  0.0175430000000 -0.4824570000000 -0.5000000000000 1.0   0.05
O      2  0.4824570000000 -0.0175430000000 -0.5000000000000 1.0   0.05
S      3  0.3474190000000  0.3448110000000  0.1773490000000 1.0  -0.02
S      3  0.1674620000000  0.1700700000000 -0.1773490000000 1.0  -0.02
S      3 -0.1700700000000 -0.1674620000000  0.1773490000000 1.0  -0.02
S      3 -0.3448110000000 -0.3474190000000 -0.1773490000000 1.0  -0.02
Fe     4  0.0005540000000  0.5005540000000  0.0011080000000 1.0   2.14
Fe     4 -0.5005540000000 -0.0005540000000 -0.0011080000000 1.0   2.14
Fe     4 -0.5000000000000  0.5000000000000  0.0000000000000 1.0   1.36
END
