TITL LFSO-Li4Fe2S4O-200910-185645-0ec457 0.0780 200.206120 -4.18064581E+003 8.59412 8.62490 11 (P2) n - 1
REM
REM Run started: Thu, 10 Sep 2020 20:46:00 +0100 in /lustre/scratch/uccabz1/launch_tmp/launcher_2020-09-10-17-56-42-636615
REM CASTEP 20.1 from code version af48c487+ pr-geom-scf-spinfix Tue Jun 2 15:39:59 2020 +0100
REM Functional Perdew Burke Ernzerhof Relativity Koelling-Harmon Dispersion off
REM Cut-off 340.0000 eV Grid scale 1.7500 Gmax 16.5316 1/A FBSC none
REM MP grid 3 2 4 Offset 0.000 0.000 0.000 No. kpts 6 Spacing 0.07
REM Total runtime: 6603.13 s
REM Overall efficiency: 91.625 %
REM
REM
REM
REM compiler GCC version 4.9.2
REM options -cpp -iprefix /lustre/shared/ucl/apps/gcc/4.9.2/bin/../lib/gcc/x86_64-unknown-linux-gnu/4.9.2/ -mtune=corei7 -march=x86-64 -g -Og
REM COMMAND_LINE
REM seed -542967495 -798375101 152073219 939457607 1449590751 -1318975947 -599080279 461140511 1380196159 1807005673 -133993606 1798281336
REM
REM S 3|1.8|5|6|7|30:31:32(qc=5)
REM O 2|1.5|12|13|15|20:21(qc=5)
REM Li 1|1.3|8|9|10|10U:20(qc=5)
REM Fe 3|2.2|2.0|1.0|8|9|10|40:41:32(qc=5)
REM 
CELL 1.54180    6.18199    9.23512    3.68211   90.00000   90.00000  107.75341
LATT -1
SFAC Li O  S  Fe 
Li     1 -0.2811310000000  0.3671680000000 -0.3757510000000 1.0  -0.00
Li     1  0.2811310000000 -0.3671680000000 -0.3757510000000 1.0  -0.00
Li     1 -0.3369520000000 -0.0898240000000 -0.1224900000000 1.0   0.05
Li     1  0.3369520000000  0.0898240000000 -0.1224900000000 1.0   0.05
O      2  0.0000000000000 -0.5000000000000 -0.1267760000000 1.0   0.34
S      3 -0.2808210000000 -0.2977730000000 -0.4824120000000 1.0   0.27
S      3  0.2808210000000  0.2977730000000 -0.4824120000000 1.0   0.27
S      3 -0.2709400000000  0.1665430000000  0.1010340000000 1.0   0.33
S      3  0.2709400000000 -0.1665430000000  0.1010340000000 1.0   0.33
Fe     4 -0.0727080000000 -0.3247380000000  0.0185640000000 1.0   3.47
Fe     4  0.0727080000000  0.3247380000000  0.0185640000000 1.0   3.47
END
