TITL LFSO-Li5FeS2O2-200920-224521-0e976a 0.0370 222.446415 -3.34685036E+003 4.99992 5.03914 10 (P2) n - 1
REM
REM Run started: Mon, 21 Sep 2020 00:01:30 +0100 in /lustre/scratch/uccabz1/launch_tmp/launcher_2020-09-20-21-45-19-674775
REM CASTEP 20.1 from code version af48c487+ pr-geom-scf-spinfix Tue Jun 2 15:39:59 2020 +0100
REM Functional Perdew Burke Ernzerhof Relativity Koelling-Harmon Dispersion off
REM Cut-off 340.0000 eV Grid scale 1.7500 Gmax 16.5316 1/A FBSC none
REM MP grid 2 3 3 Offset 0.000 0.000 0.000 No. kpts 6 Spacing 0.07
REM Total runtime: 4759.11 s
REM Overall efficiency: 83.1111 %
REM
REM
REM
REM compiler GCC version 4.9.2
REM options -cpp -iprefix /lustre/shared/ucl/apps/gcc/4.9.2/bin/../lib/gcc/x86_64-unknown-linux-gnu/4.9.2/ -mtune=corei7 -march=x86-64 -g -Og
REM COMMAND_LINE
REM seed -5810456 -315475169 694554102 -1817295275 -250123540 -766255288 2046364840 577551252 33590099 291276910 1613817946 -1806923290
REM
REM S 3|1.8|5|6|7|30:31:32(qc=5)
REM O 2|1.5|12|13|15|20:21(qc=5)
REM Li 1|1.3|8|9|10|10U:20(qc=5)
REM Fe 3|2.2|2.0|1.0|8|9|10|40:41:32(qc=5)
REM 
CELL 1.54180    7.61113    5.57331    5.35297   90.00000   90.00000  101.58044
LATT -1
SFAC Li O  S  Fe 
Li     1 -0.1457720000000  0.3840970000000 -0.2155470000000 1.0   0.00
Li     1  0.1457720000000 -0.3840970000000 -0.2155470000000 1.0   0.00
Li     1  0.0975230000000  0.2463940000000  0.3835590000000 1.0  -0.01
Li     1 -0.0975230000000 -0.2463940000000  0.3835590000000 1.0  -0.01
Li     1 -0.5000000000000  0.0000000000000  0.1653270000000 1.0   0.07
O      2 -0.0791540000000 -0.2819490000000 -0.2789720000000 1.0   0.36
O      2  0.0791540000000  0.2819490000000 -0.2789720000000 1.0   0.36
S      3 -0.2014480000000  0.1312930000000  0.1807990000000 1.0   0.21
S      3  0.2014480000000 -0.1312930000000  0.1807990000000 1.0   0.21
Fe     4  0.0000000000000  0.0000000000000 -0.0969180000000 1.0   3.79
END
