TITL LFSO-Li2Fe3S2O2-200921-033504-a01639 -0.2037 275.888087 -8.94381370E+003 -16.5883 17.4193 18 (P2221) n - 1
REM
REM Run started: Mon, 21 Sep 2020 08:45:17 +0100 in /lustre/scratch/uccabz1/launch_tmp/launcher_2020-09-21-07-33-15-362354
REM CASTEP 20.1 from code version af48c487+ pr-geom-scf-spinfix Tue Jun 2 15:39:59 2020 +0100
REM Functional Perdew Burke Ernzerhof Relativity Koelling-Harmon Dispersion off
REM Cut-off 340.0000 eV Grid scale 1.7500 Gmax 16.5316 1/A FBSC none
REM MP grid 2 3 3 Offset 0.000 0.000 0.000 No. kpts 4 Spacing 0.07
REM Total runtime: 16666.2 s
REM Overall efficiency: 97 %
REM
REM
REM
REM compiler GCC version 4.9.2
REM options -cpp -iprefix /lustre/shared/ucl/apps/gcc/4.9.2/bin/../lib/gcc/x86_64-unknown-linux-gnu/4.9.2/ -mtune=corei7 -march=x86-64 -g -Og
REM COMMAND_LINE
REM seed 1654224222 -1192624300 -550616213 1127020873 1787694982 -2033334660 489541918 -953418944 -868782026 1904383493 2012752686 -2096199794
REM
REM S 3|1.8|5|6|7|30:31:32(qc=5)
REM O 2|1.5|12|13|15|20:21(qc=5)
REM Li 1|1.3|8|9|10|10U:20(qc=5)
REM Fe 3|2.2|2.0|1.0|8|9|10|40:41:32(qc=5)
REM 
CELL 1.54180    7.68827    6.87491    5.21960   90.00000   90.00000   90.00000
LATT -1
SFAC Li O  S  Fe 
Li     1  0.3275650000000 -0.0671140000000  0.1135280000000 1.0   0.01
Li     1 -0.3275650000000  0.4328860000000 -0.1135280000000 1.0   0.01
Li     1  0.3275650000000 -0.4328860000000 -0.1135280000000 1.0   0.01
Li     1 -0.3275650000000  0.0671140000000  0.1135280000000 1.0   0.01
O      2 -0.1462060000000  0.2040680000000  0.2485820000000 1.0  -0.29
O      2  0.1462060000000 -0.2959320000000 -0.2485820000000 1.0  -0.29
O      2 -0.1462060000000  0.2959320000000 -0.2485820000000 1.0  -0.29
O      2  0.1462060000000 -0.2040680000000  0.2485820000000 1.0  -0.29
S      3 -0.3584160000000 -0.2731400000000  0.2880490000000 1.0  -0.01
S      3  0.3584160000000  0.2268600000000 -0.2880490000000 1.0  -0.01
S      3 -0.3584160000000 -0.2268600000000 -0.2880490000000 1.0  -0.01
S      3  0.3584160000000  0.2731400000000  0.2880490000000 1.0  -0.01
Fe     4  0.0656860000000  0.1703860000000 -0.2509950000000 1.0  -2.67
Fe     4 -0.0656860000000 -0.3296140000000  0.2509950000000 1.0  -2.67
Fe     4  0.0656860000000  0.3296140000000  0.2509950000000 1.0  -2.67
Fe     4 -0.0656860000000 -0.1703860000000 -0.2509950000000 1.0  -2.67
Fe     4  0.0000000000000  0.0000000000000  0.2801820000000 1.0  -2.39
Fe     4  0.0000000000000 -0.5000000000000 -0.2801820000000 1.0  -2.39
END
