TITL LFSO-Li4Fe3S2O3-200927-133945-2ac54a -0.0347 422.084119 -1.06214815E+004 6.76572 14.8893 24 (Pm) n - 1
REM
REM Run started: Tue, 29 Sep 2020 00:03:30 +0100 in /lustre/scratch/uccabz1/launch_tmp/launcher_2020-09-27-12-39-43-901861
REM CASTEP 20.1 from code version af48c487+ pr-geom-scf-spinfix Tue Jun 2 15:39:59 2020 +0100
REM Functional Perdew Burke Ernzerhof Relativity Koelling-Harmon Dispersion off
REM Cut-off 340.0000 eV Grid scale 1.7500 Gmax 16.5316 1/A FBSC none
REM MP grid 4 2 2 Offset 0.000 0.000 0.000 No. kpts 4 Spacing 0.07
REM Total runtime: 74679.3 s
REM Overall efficiency: 98.5 %
REM
REM
REM
REM compiler GCC version 4.9.2
REM options -cpp -iprefix /lustre/shared/ucl/apps/gcc/4.9.2/bin/../lib/gcc/x86_64-unknown-linux-gnu/4.9.2/ -mtune=corei7 -march=x86-64 -g -Og
REM COMMAND_LINE
REM seed 439223410 1069365634 1312848463 -1921848255 658060514 2110249901 246953940 1927023146 -856930944 -1498827951 1448703105 -1545277041
REM
REM S 3|1.8|5|6|7|30:31:32(qc=5)
REM O 2|1.5|12|13|15|20:21(qc=5)
REM Li 1|1.3|8|9|10|10U:20(qc=5)
REM Fe 3|2.2|2.0|1.0|8|9|10|40:41:32(qc=5)
REM 
CELL 1.54180    3.93260    7.58079   14.16551   90.00000   90.00000   91.85280
LATT -1
SFAC Li O  S  Fe 
Li     1  0.5667710000000 -0.1402320000000 -0.1790190000000 1.0  -0.00
Li     1  0.5667710000000 -0.1402320000000  0.1790190000000 1.0  -0.00
Li     1  0.1067850000000  0.1143960000000 -0.2069520000000 1.0   0.01
Li     1  0.1067850000000  0.1143960000000  0.2069520000000 1.0   0.01
Li     1 -0.3824090000000  0.1354390000000  0.3341830000000 1.0  -0.00
Li     1 -0.3824090000000  0.1354390000000 -0.3341830000000 1.0  -0.00
Li     1 -0.3795280000000  0.3363170000000  0.1512970000000 1.0   0.01
Li     1 -0.3795280000000  0.3363170000000 -0.1512970000000 1.0   0.01
O      2  0.1195830000000  0.0685390000000  0.3582530000000 1.0   0.37
O      2  0.1195830000000  0.0685390000000 -0.3582530000000 1.0   0.37
O      2 -0.3934910000000  0.1009700000000  0.1870050000000 1.0   0.01
O      2 -0.3934910000000  0.1009700000000 -0.1870050000000 1.0   0.01
O      2 -0.3482150000000  0.3715710000000 -0.3799220000000 1.0   0.04
O      2 -0.3482150000000  0.3715710000000  0.3799220000000 1.0   0.04
S      3  0.1193550000000 -0.4548330000000 -0.1836180000000 1.0   0.18
S      3  0.1193550000000 -0.4548330000000  0.1836180000000 1.0   0.18
S      3 -0.3866500000000 -0.2212950000000  0.3667840000000 1.0   0.03
S      3 -0.3866500000000 -0.2212950000000 -0.3667840000000 1.0   0.03
Fe     4 -0.0953320000000  0.5437100000000  0.3256750000000 1.0   2.41
Fe     4 -0.0953320000000  0.5437100000000 -0.3256750000000 1.0   2.41
Fe     4  0.3837530000000 -0.4651320000000 -0.4210710000000 1.0  -2.00
Fe     4  0.3837530000000 -0.4651320000000  0.4210710000000 1.0  -2.00
Fe     4  0.1123760000000 -0.1308190000000 -0.4155240000000 1.0   2.31
Fe     4  0.1123760000000 -0.1308190000000  0.4155240000000 1.0   2.31
END
