TITL LFSO-Li4Fe2SO3-200910-224156-dddb6d -0.0196 277.145519 -8.28718054E+003 13.4981 13.9834 20 (Pmn21) n - 1
REM
REM Run started: Fri, 11 Sep 2020 02:45:40 +0100 in /lustre/scratch/uccabz1/launch_tmp/launcher_2020-09-10-21-41-55-187901
REM CASTEP 20.1 from code version af48c487+ pr-geom-scf-spinfix Tue Jun 2 15:39:59 2020 +0100
REM Functional Perdew Burke Ernzerhof Relativity Koelling-Harmon Dispersion off
REM Cut-off 340.0000 eV Grid scale 1.7500 Gmax 16.5316 1/A FBSC none
REM MP grid 5 2 2 Offset 0.000 0.000 0.000 No. kpts 3 Spacing 0.07
REM Total runtime: 16077.4 s
REM Overall efficiency: 97.4167 %
REM
REM
REM
REM compiler GCC version 4.9.2
REM options -cpp -iprefix /lustre/shared/ucl/apps/gcc/4.9.2/bin/../lib/gcc/x86_64-unknown-linux-gnu/4.9.2/ -mtune=corei7 -march=x86-64 -g -Og
REM COMMAND_LINE
REM seed 898297820 -1307280496 575701812 86596029 -103088544 1943197958 -277189796 1884123226 1312658038 -1840441032 -553640558 503311061
REM
REM S 3|1.8|5|6|7|30:31:32(qc=5)
REM O 2|1.5|12|13|15|20:21(qc=5)
REM Li 1|1.3|8|9|10|10U:20(qc=5)
REM Fe 3|2.2|2.0|1.0|8|9|10|40:41:32(qc=5)
REM 
CELL 1.54180    3.31052    7.35276   11.38572   90.00000   90.00000   90.00000
LATT -1
SFAC Li O  S  Fe 
Li     1 -0.4434530000000 -0.3901840000000  0.1302810000000 1.0  -0.00
Li     1  0.4434530000000  0.1098160000000  0.3697190000000 1.0  -0.00
Li     1  0.4434530000000  0.1098160000000 -0.3697190000000 1.0  -0.00
Li     1 -0.4434530000000 -0.3901840000000 -0.1302810000000 1.0  -0.00
Li     1 -0.0245670000000  0.4118110000000  0.3330900000000 1.0  -0.01
Li     1  0.0245670000000 -0.0881890000000  0.1669100000000 1.0  -0.01
Li     1  0.0245670000000 -0.0881890000000 -0.1669100000000 1.0  -0.01
Li     1 -0.0245670000000  0.4118110000000 -0.3330900000000 1.0  -0.01
O      2  0.5276280000000 -0.1945260000000 -0.2314720000000 1.0   0.17
O      2 -0.5276280000000  0.3054740000000 -0.2685280000000 1.0   0.17
O      2 -0.5276280000000  0.3054740000000  0.2685280000000 1.0   0.17
O      2  0.5276280000000 -0.1945260000000  0.2314720000000 1.0   0.17
O      2 -0.5164230000000 -0.5406340000000 -0.0000000000000 1.0   0.27
O      2  0.5164230000000 -0.0406340000000 -0.5000000000000 1.0   0.27
S      3  0.4915520000000  0.0114000000000 -0.0000000000000 1.0   0.21
S      3 -0.4915520000000  0.5114000000000 -0.5000000000000 1.0   0.21
Fe     4  0.4754830000000  0.2596270000000  0.1118290000000 1.0   2.97
Fe     4 -0.4754830000000 -0.2403730000000  0.3881710000000 1.0   2.97
Fe     4 -0.4754830000000 -0.2403730000000 -0.3881710000000 1.0   2.97
Fe     4  0.4754830000000  0.2596270000000 -0.1118290000000 1.0   2.97
END
