TITL LFSO-LiFeSO-200921-213920-5f9b97 0.0100 51.979539 -1.80397713E+003 3.87612 3.90044 4 (R3m) n - 1
REM
REM Run started: Mon, 21 Sep 2020 21:52:04 +0100 in /lustre/scratch/uccabz1/launch_tmp/launcher_2020-09-21-20-39-19-257659
REM CASTEP 20.1 from code version af48c487+ pr-geom-scf-spinfix Tue Jun 2 15:39:59 2020 +0100
REM Functional Perdew Burke Ernzerhof Relativity Koelling-Harmon Dispersion off
REM Cut-off 340.0000 eV Grid scale 1.7500 Gmax 16.5316 1/A FBSC none
REM MP grid 4 4 6 Offset 0.000 0.000 0.000 No. kpts 30 Spacing 0.07
REM Total runtime: 901.17 s
REM Overall efficiency: 84.5 %
REM
REM
REM
REM compiler GCC version 4.9.2
REM options -cpp -iprefix /lustre/shared/ucl/apps/gcc/4.9.2/bin/../lib/gcc/x86_64-unknown-linux-gnu/4.9.2/ -mtune=corei7 -march=x86-64 -g -Og
REM COMMAND_LINE
REM seed -874078794 -1432779521 1484764461 146256471 -1344869196 -322451494 -1810905400 -1596091851 2108062555 -522581327 530430126 1528001356
REM
REM S 3|1.8|5|6|7|30:31:32(qc=5)
REM O 2|1.5|12|13|15|20:21(qc=5)
REM Li 1|1.3|8|9|10|10U:20(qc=5)
REM Fe 3|2.2|2.0|1.0|8|9|10|40:41:32(qc=5)
REM 
CELL 1.54180    4.65809    4.65809    3.85805   52.86582   52.86582   60.00000
LATT -1
SFAC Li O  S  Fe 
Li     1  0.3390070000000  0.3390070000000 -0.0170220000000 1.0  -0.08
O      2 -0.4367390000000 -0.4367390000000  0.3102170000000 1.0   0.51
S      3  0.0547780000000  0.0547780000000 -0.1643330000000 1.0   0.13
Fe     4 -0.2267930000000 -0.2267930000000 -0.3196200000000 1.0   3.32
END
