TITL LFSO-Li2Fe4S2O3-200912-075454-b9e460 -0.1247 335.231418 -1.15481534E+004 -26.1207 26.4077 22 (Pmc21) n - 1
REM
REM Run started: Sun, 13 Sep 2020 11:33:35 +0100 in /lustre/scratch/uccabz1/launch_tmp/launcher_2020-09-12-06-54-52-634814
REM CASTEP 20.1 from code version af48c487+ pr-geom-scf-spinfix Tue Jun 2 15:39:59 2020 +0100
REM Functional Perdew Burke Ernzerhof Relativity Koelling-Harmon Dispersion off
REM Cut-off 340.0000 eV Grid scale 1.7500 Gmax 16.5316 1/A FBSC none
REM MP grid 3 2 3 Offset 0.000 0.000 0.000 No. kpts 4 Spacing 0.07
REM Total runtime: 78873.6 s
REM Overall efficiency: 98.0909 %
REM
REM
REM
REM compiler GCC version 4.9.2
REM options -cpp -iprefix /lustre/shared/ucl/apps/gcc/4.9.2/bin/../lib/gcc/x86_64-unknown-linux-gnu/4.9.2/ -mtune=corei7 -march=x86-64 -g -Og
REM COMMAND_LINE
REM seed -639396597 2119681785 805746626 -1305564506 259109961 -1961790460 -1498765938 1596073948 1744899855 1686077411 706951965 -558277501
REM
REM S 3|1.8|5|6|7|30:31:32(qc=5)
REM O 2|1.5|12|13|15|20:21(qc=5)
REM Li 1|1.3|8|9|10|10U:20(qc=5)
REM Fe 3|2.2|2.0|1.0|8|9|10|40:41:32(qc=5)
REM 
CELL 1.54180    6.04588    8.84017    6.27226   90.00000   90.00000   90.00000
LATT -1
SFAC Li O  S  Fe 
Li     1 -0.4235480000000 -0.1358830000000  0.2048870000000 1.0   0.04
Li     1  0.0764520000000  0.1358830000000 -0.2048870000000 1.0   0.04
Li     1  0.0764520000000 -0.1358830000000 -0.2048870000000 1.0   0.04
Li     1 -0.4235480000000  0.1358830000000  0.2048870000000 1.0   0.04
O      2 -0.0908770000000  0.3224430000000 -0.1619080000000 1.0  -0.25
O      2  0.4091230000000 -0.3224430000000  0.1619080000000 1.0  -0.25
O      2  0.4091230000000  0.3224430000000  0.1619080000000 1.0  -0.25
O      2 -0.0908770000000 -0.3224430000000 -0.1619080000000 1.0  -0.25
O      2 -0.1480980000000  0.0000000000000 -0.2847100000000 1.0  -0.30
O      2  0.3519020000000  0.0000000000000  0.2847100000000 1.0  -0.30
S      3 -0.1288580000000  0.2821020000000  0.3184420000000 1.0  -0.19
S      3  0.3711420000000 -0.2821020000000 -0.3184420000000 1.0  -0.19
S      3  0.3711420000000  0.2821020000000 -0.3184420000000 1.0  -0.19
S      3 -0.1288580000000 -0.2821020000000  0.3184420000000 1.0  -0.19
Fe     4 -0.2793660000000 -0.1971550000000  0.6436200000000 1.0  -3.36
Fe     4  0.2206340000000  0.1971550000000 -0.6436200000000 1.0  -3.36
Fe     4  0.2206340000000 -0.1971550000000 -0.6436200000000 1.0  -3.36
Fe     4 -0.2793660000000  0.1971550000000  0.6436200000000 1.0  -3.36
Fe     4  0.1634500000000 -0.3686630000000 -0.0021710000000 1.0  -2.61
Fe     4 -0.3365500000000  0.3686630000000  0.0021710000000 1.0  -2.61
Fe     4 -0.3365500000000 -0.3686630000000  0.0021710000000 1.0  -2.61
Fe     4  0.1634500000000  0.3686630000000 -0.0021710000000 1.0  -2.61
END
