TITL LFSO-Li5FeS3O-200910-091847-00531d -0.0052 214.056690 -3.21275456E+003 3.22467 3.42650 10 (R32) n - 1
REM
REM Run started: Thu, 10 Sep 2020 10:49:20 +0100 in /lustre/scratch/uccabz1/launch_tmp/launcher_2020-09-10-08-18-45-639976
REM CASTEP 20.1 from code version af48c487+ pr-geom-scf-spinfix Tue Jun 2 15:39:59 2020 +0100
REM Functional Perdew Burke Ernzerhof Relativity Koelling-Harmon Dispersion off
REM Cut-off 340.0000 eV Grid scale 1.7500 Gmax 16.5316 1/A FBSC none
REM MP grid 3 3 3 Offset 0.000 0.000 0.000 No. kpts 6 Spacing 0.07
REM Total runtime: 5472.74 s
REM Overall efficiency: 93.2222 %
REM
REM
REM
REM compiler GCC version 4.9.2
REM options -cpp -iprefix /lustre/shared/ucl/apps/gcc/4.9.2/bin/../lib/gcc/x86_64-unknown-linux-gnu/4.9.2/ -mtune=corei7 -march=x86-64 -g -Og
REM COMMAND_LINE
REM seed -192106985 335403981 -1882668769 1231939690 1264214372 1193877699 184135221 1939820246 2098708713 -527782744 218416676 1259121354
REM
REM S 3|1.8|5|6|7|30:31:32(qc=5)
REM O 2|1.5|12|13|15|20:21(qc=5)
REM Li 1|1.3|8|9|10|10U:20(qc=5)
REM Fe 3|2.2|2.0|1.0|8|9|10|40:41:32(qc=5)
REM 
CELL 1.54180    6.43331    6.43331    6.43331   66.34914   66.34914   66.34914
LATT -1
SFAC Li O  S  Fe 
Li     1 -0.0332660000000  0.4477550000000 -0.3030810000000 1.0  -0.01
Li     1  0.4477550000000 -0.3030810000000 -0.0332660000000 1.0  -0.01
Li     1 -0.3030810000000 -0.0332660000000  0.4477550000000 1.0  -0.01
Li     1 -0.1702980000000 -0.1702980000000 -0.1702980000000 1.0   0.05
Li     1  0.5797880000000  0.5797880000000  0.5797880000000 1.0   0.05
O      2 -0.2954960000000 -0.2954960000000 -0.2954960000000 1.0   0.01
S      3 -0.4924480000000 -0.1045230000000  0.2062780000000 1.0   0.09
S      3 -0.1045230000000  0.2062780000000 -0.4924480000000 1.0   0.09
S      3  0.2062780000000 -0.4924480000000 -0.1045230000000 1.0   0.09
Fe     4  0.2034600000000  0.2034600000000  0.2034600000000 1.0   2.89
END
