TITL LFSO-Li2Fe2SO3-200913-111731-0d530f 0.0181 233.050587 -7.48617813E+003 14.0712 14.4990 16 (R3) n - 1
REM
REM Run started: Sun, 13 Sep 2020 19:34:58 +0100 in /lustre/scratch/uccabz1/launch_tmp/launcher_2020-09-13-10-17-28-737716
REM CASTEP 20.1 from code version af48c487+ pr-geom-scf-spinfix Tue Jun 2 15:39:59 2020 +0100
REM Functional Perdew Burke Ernzerhof Relativity Koelling-Harmon Dispersion off
REM Cut-off 340.0000 eV Grid scale 1.7500 Gmax 16.5316 1/A FBSC none
REM MP grid 3 3 3 Offset 0.000 0.000 0.000 No. kpts 6 Spacing 0.07
REM Total runtime: 29936.8 s
REM Overall efficiency: 97.3333 %
REM
REM
REM
REM compiler GCC version 4.9.2
REM options -cpp -iprefix /lustre/shared/ucl/apps/gcc/4.9.2/bin/../lib/gcc/x86_64-unknown-linux-gnu/4.9.2/ -mtune=corei7 -march=x86-64 -g -Og
REM COMMAND_LINE
REM seed -1687140649 1437581476 -516208527 713576080 -1940893133 -1078261714 -203718977 275212008 741835149 -1753066497 -55504973 -16651604
REM
REM S 3|1.8|5|6|7|30:31:32(qc=5)
REM O 2|1.5|12|13|15|20:21(qc=5)
REM Li 1|1.3|8|9|10|10U:20(qc=5)
REM Fe 3|2.2|2.0|1.0|8|9|10|40:41:32(qc=5)
REM 
CELL 1.54180    6.50730    6.50730    7.38250   63.84989   63.84989   60.00000
LATT -1
SFAC Li O  S  Fe 
Li     1  0.4213640000000 -0.1728870000000 -0.3565410000000 1.0   0.02
Li     1  0.1080640000000  0.4213640000000 -0.3565410000000 1.0   0.02
Li     1 -0.1728870000000  0.1080640000000 -0.3565410000000 1.0   0.02
Li     1  0.2108870000000  0.2108870000000  0.3673390000000 1.0  -0.11
O      2 -0.4828510000000  0.0717490000000  0.4185070000000 1.0   0.38
O      2 -0.0074050000000 -0.4828510000000  0.4185070000000 1.0   0.38
O      2  0.0717490000000 -0.0074050000000  0.4185070000000 1.0   0.38
O      2  0.1978590000000  0.6977000000000 -0.1000050000000 1.0   0.28
O      2  0.2044460000000  0.1978590000000 -0.1000050000000 1.0   0.28
O      2  0.6977000000000  0.2044460000000 -0.1000050000000 1.0   0.28
S      3 -0.3948940000000 -0.3948940000000  0.1846810000000 1.0  -0.07
S      3 -0.5052040000000 -0.5052040000000  0.5156110000000 1.0   0.11
Fe     4 -0.3018270000000  0.1503010000000  0.1640120000000 1.0   2.98
Fe     4 -0.0124860000000 -0.3018270000000  0.1640120000000 1.0   2.98
Fe     4  0.1503010000000 -0.0124860000000  0.1640120000000 1.0   2.98
Fe     4  0.3746050000000  0.3746050000000 -0.1238140000000 1.0   3.14
END
