TITL LFSO-Li4Fe3SO4-200930-193807-057a3f 0.0066 176.967361 -5.44522912E+003 11.9954 12.1379 12 (R3) n - 1
REM
REM Run started: Wed, 30 Sep 2020 20:32:48 +0100 in /lustre/scratch/uccabz1/launch_tmp/launcher_2020-09-30-18-38-06-020748
REM CASTEP 20.1 from code version af48c487+ pr-geom-scf-spinfix Tue Jun 2 15:39:59 2020 +0100
REM Functional Perdew Burke Ernzerhof Relativity Koelling-Harmon Dispersion off
REM Cut-off 340.0000 eV Grid scale 1.7500 Gmax 16.5316 1/A FBSC none
REM MP grid 3 3 3 Offset 0.000 0.000 0.000 No. kpts 6 Spacing 0.07
REM Total runtime: 4224.49 s
REM Overall efficiency: 94.5714 %
REM
REM
REM
REM compiler GCC version 4.9.2
REM options -cpp -iprefix /lustre/shared/ucl/apps/gcc/4.9.2/bin/../lib/gcc/x86_64-unknown-linux-gnu/4.9.2/ -mtune=corei7 -march=x86-64 -g -Og
REM COMMAND_LINE
REM seed 569379197 -1321051785 748647932 935925468 359145498 1888576738 -1170056309 -2124103583 1263059483 -1189419798 1225275715 1958350595
REM
REM S 3|1.8|5|6|7|30:31:32(qc=5)
REM O 2|1.5|12|13|15|20:21(qc=5)
REM Li 1|1.3|8|9|10|10U:20(qc=5)
REM Fe 3|2.2|2.0|1.0|8|9|10|40:41:32(qc=5)
REM 
CELL 1.54180    6.64323    6.64323    6.64323   53.73951   53.73951   53.73951
LATT -1
SFAC Li O  S  Fe 
Li     1 -0.2856080000000 -0.6511020000000  0.0976650000000 1.0  -0.00
Li     1  0.0976650000000 -0.2856080000000 -0.6511020000000 1.0  -0.00
Li     1 -0.6511020000000  0.0976650000000 -0.2856080000000 1.0  -0.00
Li     1 -0.3911920000000 -0.3911920000000 -0.3911920000000 1.0  -0.03
O      2  0.2824950000000 -0.1823200000000 -0.2245700000000 1.0   0.32
O      2 -0.2245700000000  0.2824950000000 -0.1823200000000 1.0   0.32
O      2 -0.1823200000000 -0.2245700000000  0.2824950000000 1.0   0.32
O      2  0.3423740000000  0.3423740000000  0.3423740000000 1.0   0.35
S      3  0.1495370000000  0.1495370000000  0.1495370000000 1.0   0.17
Fe     4  0.0753930000000  0.1348530000000 -0.4474390000000 1.0   3.52
Fe     4 -0.4474390000000  0.0753930000000  0.1348530000000 1.0   3.52
Fe     4  0.1348530000000 -0.4474390000000  0.0753930000000 1.0   3.52
END
