TITL LFSO-Li2Fe2SO3-200913-092018-131703 -0.1151 353.728013 -1.12325368E+004 23.7054 24.1092 24 (P31) n - 1
REM
REM Run started: Sun, 13 Sep 2020 22:30:05 +0100 in /lustre/scratch/uccabz1/launch_tmp/launcher_2020-09-13-15-45-54-361766
REM CASTEP 20.1 from code version af48c487+ pr-geom-scf-spinfix Tue Jun 2 15:39:59 2020 +0100
REM Functional Perdew Burke Ernzerhof Relativity Koelling-Harmon Dispersion off
REM Cut-off 340.0000 eV Grid scale 1.7500 Gmax 16.5316 1/A FBSC none
REM MP grid 5 2 2 Offset 0.000 0.000 0.000 No. kpts 10 Spacing 0.07
REM Total runtime: 36569.8 s
REM Overall efficiency: 76.2308 %
REM
REM
REM
REM compiler GCC version 4.9.2
REM options -cpp -iprefix /lustre/shared/ucl/apps/gcc/4.9.2/bin/../lib/gcc/x86_64-unknown-linux-gnu/4.9.2/ -mtune=corei7 -march=x86-64 -g -Og
REM COMMAND_LINE
REM seed -627397236 -1901503243 1464258867 -1491871548 1068395269 -1483936680 -789457074 1445902927 -233554006 -1820971050 -992199827 1350606405
REM
REM S 3|1.8|5|6|7|30:31:32(qc=5)
REM O 2|1.5|12|13|15|20:21(qc=5)
REM Li 1|1.3|8|9|10|10U:20(qc=5)
REM Fe 3|2.2|2.0|1.0|8|9|10|40:41:32(qc=5)
REM 
CELL 1.54180    3.23873   11.23006   11.23006  120.00000   90.00000   90.00000
LATT -1
SFAC Li O  S  Fe 
Li     1  0.0879360000000 -0.0825930000000 -0.3314810000000 1.0  -0.01
Li     1  0.4212690000000  0.3314810000000  0.2488880000000 1.0  -0.01
Li     1 -0.2453980000000 -0.2488880000000  0.0825930000000 1.0  -0.01
Li     1  0.2599810000000  0.1546350000000 -0.3335360000000 1.0   0.00
Li     1  0.5933140000000  0.3335360000000  0.4881710000000 1.0   0.00
Li     1 -0.0733530000000 -0.4881710000000 -0.1546350000000 1.0   0.00
O      2  0.1215320000000 -0.1230070000000  0.3438550000000 1.0   0.44
O      2  0.4548650000000 -0.3438550000000  0.5331380000000 1.0   0.44
O      2 -0.2118010000000 -0.5331380000000  0.1230070000000 1.0   0.44
O      2  0.5955610000000 -0.0098170000000 -0.3700340000000 1.0   0.36
O      2 -0.0711050000000  0.3700340000000  0.3602160000000 1.0   0.36
O      2  0.2622280000000 -0.3602160000000  0.0098170000000 1.0   0.36
O      2  0.1759140000000  0.3476950000000 -0.1387500000000 1.0   0.39
O      2 -0.4907520000000  0.1387500000000  0.4864450000000 1.0   0.39
O      2 -0.1574190000000 -0.4864450000000 -0.3476950000000 1.0   0.39
S      3  0.4183150000000  0.1647820000000 -0.0049290000000 1.0   0.08
S      3 -0.2483510000000  0.0049290000000  0.1697110000000 1.0   0.08
S      3  0.0849820000000 -0.1697110000000 -0.1647820000000 1.0   0.08
Fe     4  0.2957650000000 -0.4908140000000  0.0598450000000 1.0   3.79
Fe     4 -0.3709020000000 -0.0598450000000  0.4493410000000 1.0   3.79
Fe     4 -0.0375690000000 -0.4493410000000  0.4908140000000 1.0   3.79
Fe     4 -0.0806520000000  0.2816490000000 -0.0368470000000 1.0   2.84
Fe     4  0.2526820000000  0.0368470000000  0.3184960000000 1.0   2.84
Fe     4 -0.4139850000000 -0.3184960000000 -0.2816490000000 1.0   2.84
END
