TITL LFSO-Li4Fe2S3O2-200911-044613-8887e0 -0.0476 372.892103 -8.63031693E+003 15.1405 15.3773 22 (Ima2) n - 1
REM
REM Run started: Fri, 11 Sep 2020 19:17:40 +0100 in /lustre/scratch/uccabz1/launch_tmp/launcher_2020-09-11-03-46-11-474227
REM CASTEP 20.1 from code version af48c487+ pr-geom-scf-spinfix Tue Jun 2 15:39:59 2020 +0100
REM Functional Perdew Burke Ernzerhof Relativity Koelling-Harmon Dispersion off
REM Cut-off 340.0000 eV Grid scale 1.7500 Gmax 16.5316 1/A FBSC none
REM MP grid 3 3 3 Offset 0.000 0.000 0.000 No. kpts 8 Spacing 0.07
REM Total runtime: 55548.5 s
REM Overall efficiency: 95.7 %
REM
REM
REM
REM compiler GCC version 4.9.2
REM options -cpp -iprefix /lustre/shared/ucl/apps/gcc/4.9.2/bin/../lib/gcc/x86_64-unknown-linux-gnu/4.9.2/ -mtune=corei7 -march=x86-64 -g -Og
REM COMMAND_LINE
REM seed 21743571 -195811323 1175953164 454088497 1127342503 -1186440382 1240204329 620380279 -521566712 -256067126 568900269 784050899
REM
REM S 3|1.8|5|6|7|30:31:32(qc=5)
REM O 2|1.5|12|13|15|20:21(qc=5)
REM Li 1|1.3|8|9|10|10U:20(qc=5)
REM Fe 3|2.2|2.0|1.0|8|9|10|40:41:32(qc=5)
REM 
CELL 1.54180    6.86393   10.00123   10.00123   35.60984   69.93081   69.93081
LATT -1
SFAC Li O  S  Fe 
Li     1 -0.2613440000000 -0.2796520000000  0.2082760000000 1.0  -0.00
Li     1  0.2613440000000 -0.2082760000000  0.2796520000000 1.0  -0.00
Li     1 -0.1672800000000  0.2203480000000 -0.2917240000000 1.0  -0.00
Li     1  0.1672800000000  0.2917240000000 -0.2203480000000 1.0  -0.00
Li     1 -0.0291240000000  0.1721330000000  0.1593880000000 1.0   0.03
Li     1  0.0291240000000 -0.1593880000000 -0.1721330000000 1.0   0.03
Li     1  0.1976040000000 -0.3278670000000 -0.3406120000000 1.0   0.03
Li     1 -0.1976040000000  0.3406120000000  0.3278670000000 1.0   0.03
O      2  0.0871910000000 -0.3866320000000 -0.4390790000000 1.0   0.31
O      2 -0.0871910000000  0.4390790000000  0.3866320000000 1.0   0.31
O      2  0.2385200000000  0.1133680000000  0.0609210000000 1.0   0.31
O      2 -0.2385200000000 -0.0609210000000 -0.1133680000000 1.0   0.31
S      3 -0.2640750000000  0.3000560000000 -0.0838910000000 1.0   0.12
S      3  0.2640750000000  0.0838910000000 -0.3000560000000 1.0   0.12
S      3 -0.4520900000000 -0.1999440000000  0.4161090000000 1.0   0.12
S      3  0.4520900000000 -0.4161090000000  0.1999440000000 1.0   0.12
S      3  0.1820470000000  0.4218460000000  0.0781540000000 1.0   0.22
S      3 -0.1820470000000 -0.0781540000000 -0.4218460000000 1.0   0.22
Fe     4  0.4160060000000  0.1713310000000  0.1021800000000 1.0   3.21
Fe     4 -0.4160060000000 -0.1021800000000 -0.1713310000000 1.0   3.21
Fe     4 -0.1895170000000 -0.3286690000000 -0.3978200000000 1.0   3.21
Fe     4  0.1895170000000  0.3978200000000  0.3286690000000 1.0   3.21
END
