TITL LFSO-Li2Fe2S3O-200913-041847-78dd51 0.0332 492.714822 -1.04293439E+004 11.8550 14.8220 24 (Cmm2) n - 1
REM
REM Run started: Sun, 13 Sep 2020 17:59:36 +0100 in /lustre/scratch/uccabz1/launch_tmp/launcher_2020-09-13-16-29-28-161988
REM CASTEP 20.1 from code version af48c487+ pr-geom-scf-spinfix Tue Jun 2 15:39:59 2020 +0100
REM Functional Perdew Burke Ernzerhof Relativity Koelling-Harmon Dispersion off
REM Cut-off 340.0000 eV Grid scale 1.7500 Gmax 16.5316 1/A FBSC none
REM MP grid 3 2 2 Offset 0.000 0.000 0.000 No. kpts 4 Spacing 0.07
REM Total runtime: 47205.1 s
REM Overall efficiency: 98.0909 %
REM
REM
REM
REM compiler GCC version 4.9.2
REM options -cpp -iprefix /lustre/shared/ucl/apps/gcc/4.9.2/bin/../lib/gcc/x86_64-unknown-linux-gnu/4.9.2/ -mtune=corei7 -march=x86-64 -g -Og
REM COMMAND_LINE
REM seed -832805693 1447613718 -1896327954 2015664947 -1954005480 717627237 -1439478711 -593985415 2035291915 -394682433 1436660165 -369834812
REM
REM S 3|1.8|5|6|7|30:31:32(qc=5)
REM O 2|1.5|12|13|15|20:21(qc=5)
REM Li 1|1.3|8|9|10|10U:20(qc=5)
REM Fe 3|2.2|2.0|1.0|8|9|10|40:41:32(qc=5)
REM 
CELL 1.54180    6.09166    9.00413    9.00413   86.06842   90.00000   90.00000
LATT -1
SFAC Li O  S  Fe 
Li     1  0.3506050000000  0.2380390000000  0.4878290000000 1.0   0.02
Li     1  0.3506050000000 -0.2380390000000 -0.4878290000000 1.0   0.02
Li     1  0.3506050000000  0.4878290000000  0.2380390000000 1.0   0.02
Li     1  0.3506050000000 -0.4878290000000 -0.2380390000000 1.0   0.02
Li     1 -0.0130590000000  0.1800260000000 -0.1800260000000 1.0   0.03
Li     1 -0.0130590000000 -0.1800260000000  0.1800260000000 1.0   0.03
O      2 -0.2214410000000 -0.2017530000000 -0.2017530000000 1.0   0.07
O      2 -0.2214410000000  0.2017530000000  0.2017530000000 1.0   0.07
O      2 -0.0114930000000  0.0000000000000  0.0000000000000 1.0   0.10
S      3 -0.2674840000000  0.1642690000000 -0.4173480000000 1.0   0.24
S      3 -0.2674840000000 -0.1642690000000  0.4173480000000 1.0   0.24
S      3 -0.2674840000000 -0.4173480000000  0.1642690000000 1.0   0.24
S      3 -0.2674840000000  0.4173480000000 -0.1642690000000 1.0   0.24
S      3  0.2095130000000  0.3213670000000  0.0366820000000 1.0   0.14
S      3  0.2095130000000 -0.3213670000000 -0.0366820000000 1.0   0.14
S      3  0.2095130000000  0.0366820000000  0.3213670000000 1.0   0.14
S      3  0.2095130000000 -0.0366820000000 -0.3213670000000 1.0   0.14
S      3  0.3054610000000 -0.5000000000000  0.5000000000000 1.0  -0.05
Fe     4 -0.1552830000000 -0.0722970000000 -0.3738440000000 1.0   2.83
Fe     4 -0.1552830000000  0.0722970000000  0.3738440000000 1.0   2.83
Fe     4 -0.1552830000000 -0.3738440000000 -0.0722970000000 1.0   2.83
Fe     4 -0.1552830000000  0.3738440000000  0.0722970000000 1.0   2.83
Fe     4  0.0334360000000 -0.1292840000000 -0.1292840000000 1.0  -0.63
Fe     4  0.0334360000000  0.1292840000000  0.1292840000000 1.0  -0.63
END
