TITL LFSO-Li6FeS3O-200910-021216-43d103 0.0773 354.177622 -6.82466137E+003 -7.99790 8.16187 22 (P2/m) n - 1
REM
REM Run started: Thu, 10 Sep 2020 07:52:16 +0100 in /lustre/scratch/uccabz1/launch_tmp/launcher_2020-09-10-01-12-15-169697
REM CASTEP 20.1 from code version af48c487+ pr-geom-scf-spinfix Tue Jun 2 15:39:59 2020 +0100
REM Functional Perdew Burke Ernzerhof Relativity Koelling-Harmon Dispersion off
REM Cut-off 340.0000 eV Grid scale 1.7500 Gmax 16.5316 1/A FBSC none
REM MP grid 2 3 3 Offset 0.000 0.000 0.000 No. kpts 5 Spacing 0.07
REM Total runtime: 20488.6 s
REM Overall efficiency: 91.2 %
REM
REM
REM
REM compiler GCC version 4.9.2
REM options -cpp -iprefix /lustre/shared/ucl/apps/gcc/4.9.2/bin/../lib/gcc/x86_64-unknown-linux-gnu/4.9.2/ -mtune=corei7 -march=x86-64 -g -Og
REM COMMAND_LINE
REM seed -1559159288 -988554241 1026732233 -1513941456 718639582 -1397315995 42988024 -565118008 -507872499 -460762076 435412105 -1934015049
REM
REM S 3|1.8|5|6|7|30:31:32(qc=5)
REM O 2|1.5|12|13|15|20:21(qc=5)
REM Li 1|1.3|8|9|10|10U:20(qc=5)
REM Fe 3|2.2|2.0|1.0|8|9|10|40:41:32(qc=5)
REM 
CELL 1.54180    7.15476    7.10064    6.97976   87.21959   90.00000   90.00000
LATT -1
SFAC Li O  S  Fe 
Li     1 -0.1727020000000 -0.4153230000000 -0.1859640000000 1.0   0.03
Li     1 -0.1727020000000  0.4153230000000  0.1859640000000 1.0   0.03
Li     1  0.1727020000000  0.4153230000000  0.1859640000000 1.0   0.03
Li     1  0.1727020000000 -0.4153230000000 -0.1859640000000 1.0   0.03
Li     1  0.1935090000000  0.2485890000000 -0.4896800000000 1.0  -0.02
Li     1  0.1935090000000 -0.2485890000000  0.4896800000000 1.0  -0.02
Li     1 -0.1935090000000 -0.2485890000000  0.4896800000000 1.0  -0.02
Li     1 -0.1935090000000  0.2485890000000 -0.4896800000000 1.0  -0.02
Li     1  0.1979670000000  0.0882700000000  0.1676060000000 1.0  -0.04
Li     1  0.1979670000000 -0.0882700000000 -0.1676060000000 1.0  -0.04
Li     1 -0.1979670000000 -0.0882700000000 -0.1676060000000 1.0  -0.04
Li     1 -0.1979670000000  0.0882700000000  0.1676060000000 1.0  -0.04
O      2  0.0000000000000 -0.2447170000000 -0.3167700000000 1.0  -0.01
O      2  0.0000000000000  0.2447170000000  0.3167700000000 1.0  -0.01
S      3 -0.2233580000000 -0.2487530000000  0.1507590000000 1.0  -0.15
S      3 -0.2233580000000  0.2487530000000 -0.1507590000000 1.0  -0.15
S      3  0.2233580000000  0.2487530000000 -0.1507590000000 1.0  -0.15
S      3  0.2233580000000 -0.2487530000000  0.1507590000000 1.0  -0.15
S      3  0.5000000000000  0.3050420000000  0.2934210000000 1.0  -0.21
S      3  0.5000000000000 -0.3050420000000 -0.2934210000000 1.0  -0.21
Fe     4 -0.5000000000000 -0.3998190000000  0.1373930000000 1.0  -3.42
Fe     4  0.5000000000000  0.3998190000000 -0.1373930000000 1.0  -3.42
END
