TITL LFSO-Li3Fe3S4O2-200929-160754-9d0a32 0.0666 227.296308 -5.28041714E+003 -6.77205 7.70398 12 (Cm) n - 1
REM
REM Run started: Tue, 29 Sep 2020 19:53:37 +0100 in /lustre/scratch/uccabz1/launch_tmp/launcher_2020-09-29-15-07-52-870485
REM CASTEP 20.1 from code version af48c487+ pr-geom-scf-spinfix Tue Jun 2 15:39:59 2020 +0100
REM Functional Perdew Burke Ernzerhof Relativity Koelling-Harmon Dispersion off
REM Cut-off 340.0000 eV Grid scale 1.7500 Gmax 16.5316 1/A FBSC none
REM MP grid 5 2 2 Offset 0.000 0.000 0.000 No. kpts 9 Spacing 0.07
REM Total runtime: 13659.4 s
REM Overall efficiency: 96.375 %
REM
REM
REM
REM compiler GCC version 4.9.2
REM options -cpp -iprefix /lustre/shared/ucl/apps/gcc/4.9.2/bin/../lib/gcc/x86_64-unknown-linux-gnu/4.9.2/ -mtune=corei7 -march=x86-64 -g -Og
REM COMMAND_LINE
REM seed 1494592518 954957948 -203336415 149654772 1539507702 1201924629 1592082444 -1309186924 -944835408 -1121474929 271401272 -1429371375
REM
REM S 3|1.8|5|6|7|30:31:32(qc=5)
REM O 2|1.5|12|13|15|20:21(qc=5)
REM Li 1|1.3|8|9|10|10U:20(qc=5)
REM Fe 3|2.2|2.0|1.0|8|9|10|40:41:32(qc=5)
REM 
CELL 1.54180    3.64484    8.09367    7.91774   89.89547   76.69300   89.54586
LATT -1
SFAC Li O  S  Fe 
Li     1  0.2752250000000  0.2960000000000 -0.2561030000000 1.0  -0.01
Li     1  0.0191220000000  0.2960000000000  0.2561030000000 1.0  -0.01
Li     1 -0.3744930000000 -0.5147530000000  0.0000000000000 1.0   0.01
O      2  0.0061940000000  0.5021000000000  0.1769230000000 1.0  -0.29
O      2  0.1831170000000  0.5021000000000 -0.1769230000000 1.0  -0.29
S      3  0.4577930000000 -0.1641710000000  0.2651820000000 1.0   0.07
S      3 -0.2770240000000 -0.1641710000000 -0.2651820000000 1.0   0.07
S      3 -0.4639030000000  0.1163580000000  0.2177110000000 1.0   0.09
S      3 -0.2461930000000  0.1163580000000 -0.2177110000000 1.0   0.09
Fe     4  0.0210780000000 -0.2852410000000  0.1562860000000 1.0  -2.34
Fe     4  0.1773640000000 -0.2852410000000 -0.1562860000000 1.0  -2.34
Fe     4  0.6158690000000 -0.0761430000000  0.0000000000000 1.0  -1.82
END
