TITL LFSO-Li4Fe3S3O2-200927-093430-89b31a 0.0456 497.679590 -1.03531985E+004 -2.87757 12.2573 24 (Pm) n - 1
REM
REM Run started: Tue, 29 Sep 2020 13:58:03 +0100 in /lustre/scratch/uccabz1/launch_tmp/launcher_2020-09-29-08-32-02-489375
REM CASTEP 20.1 from code version af48c487+ pr-geom-scf-spinfix Tue Jun 2 15:39:59 2020 +0100
REM Functional Perdew Burke Ernzerhof Relativity Koelling-Harmon Dispersion off
REM Cut-off 340.0000 eV Grid scale 1.7500 Gmax 16.5316 1/A FBSC none
REM MP grid 2 3 2 Offset 0.000 0.000 0.000 No. kpts 3 Spacing 0.07
REM Total runtime: 150324 s
REM Overall efficiency: 91 %
REM
REM
REM
REM compiler GCC version 4.9.2
REM options -cpp -iprefix /lustre/shared/ucl/apps/gcc/4.9.2/bin/../lib/gcc/x86_64-unknown-linux-gnu/4.9.2/ -mtune=corei7 -march=x86-64 -g -Og
REM COMMAND_LINE
REM seed -188391435 531836 1462606469 1775425878 679188600 61656706 -247092650 101150037 2124115448 -790301233 1788701891 -194088625
REM
REM S 3|1.8|5|6|7|30:31:32(qc=5)
REM O 2|1.5|12|13|15|20:21(qc=5)
REM Li 1|1.3|8|9|10|10U:20(qc=5)
REM Fe 3|2.2|2.0|1.0|8|9|10|40:41:32(qc=5)
REM 
CELL 1.54180    9.25636    6.26415    9.12850  109.90470   90.00000   90.00000
LATT -1
SFAC Li O  S  Fe 
Li     1  0.2930900000000 -0.0743830000000 -0.5008690000000 1.0   0.01
Li     1 -0.2930900000000 -0.0743830000000 -0.5008690000000 1.0   0.01
Li     1 -0.1903510000000 -0.3924200000000 -0.3307480000000 1.0   0.00
Li     1  0.1903510000000 -0.3924200000000 -0.3307480000000 1.0   0.00
Li     1 -0.2442590000000  0.1732490000000 -0.1800770000000 1.0  -0.01
Li     1  0.2442590000000  0.1732490000000 -0.1800770000000 1.0  -0.01
Li     1 -0.2068880000000  0.5063680000000  0.2878940000000 1.0   0.00
Li     1  0.2068880000000  0.5063680000000  0.2878940000000 1.0   0.00
O      2 -0.2604790000000 -0.3608300000000  0.4877810000000 1.0  -0.22
O      2  0.2604790000000 -0.3608300000000  0.4877810000000 1.0  -0.22
O      2 -0.2982060000000  0.3002600000000 -0.3372000000000 1.0  -0.09
O      2  0.2982060000000  0.3002600000000 -0.3372000000000 1.0  -0.09
S      3 -0.3209410000000  0.4492280000000  0.0450520000000 1.0   0.01
S      3  0.3209410000000  0.4492280000000  0.0450520000000 1.0   0.01
S      3 -0.3184890000000 -0.1380680000000 -0.1154220000000 1.0   0.01
S      3  0.3184890000000 -0.1380680000000 -0.1154220000000 1.0   0.01
S      3 -0.2784050000000  0.0819360000000  0.2874150000000 1.0  -0.11
S      3  0.2784050000000  0.0819360000000  0.2874150000000 1.0  -0.11
Fe     4  0.3601050000000  0.3737690000000  0.4824680000000 1.0  -3.25
Fe     4 -0.3601050000000  0.3737690000000  0.4824680000000 1.0  -3.25
Fe     4  0.3890710000000 -0.4857510000000 -0.1672820000000 1.0   1.12
Fe     4 -0.3890710000000 -0.4857510000000 -0.1672820000000 1.0   1.12
Fe     4 -0.3866090000000  0.1394290000000  0.0930380000000 1.0   1.07
Fe     4  0.3866090000000  0.1394290000000  0.0930380000000 1.0   1.07
END
