TITL LFSO-Li4Fe2SO4-200910-162106-725b27 -0.0233 294.141112 -9.16448469E+003 18.5727 18.6793 22 (P3) n - 1
REM
REM Run started: Fri, 11 Sep 2020 05:49:05 +0100 in /lustre/scratch/uccabz1/launch_tmp/launcher_2020-09-10-15-21-03-876735
REM CASTEP 20.1 from code version af48c487+ pr-geom-scf-spinfix Tue Jun 2 15:39:59 2020 +0100
REM Functional Perdew Burke Ernzerhof Relativity Koelling-Harmon Dispersion off
REM Cut-off 340.0000 eV Grid scale 1.7500 Gmax 16.5316 1/A FBSC none
REM MP grid 3 3 2 Offset 0.000 0.000 0.000 No. kpts 5 Spacing 0.07
REM Total runtime: 48631.3 s
REM Overall efficiency: 72.1111 %
REM
REM
REM
REM compiler GCC version 4.9.2
REM options -cpp -iprefix /lustre/shared/ucl/apps/gcc/4.9.2/bin/../lib/gcc/x86_64-unknown-linux-gnu/4.9.2/ -mtune=corei7 -march=x86-64 -g -Og
REM COMMAND_LINE
REM seed 920286041 -1524025227 -1879175032 -1169101379 -1890893144 -1153617977 1460934115 -239386327 -497976638 -1882093059 -1671185928 -1691327695
REM
REM S 3|1.8|5|6|7|30:31:32(qc=5)
REM O 2|1.5|12|13|15|20:21(qc=5)
REM Li 1|1.3|8|9|10|10U:20(qc=5)
REM Fe 3|2.2|2.0|1.0|8|9|10|40:41:32(qc=5)
REM 
CELL 1.54180    6.20155    6.20155    8.83131   90.00000   90.00000  120.00000
LATT -1
SFAC Li O  S  Fe 
Li     1 -0.0200300000000  0.2779460000000  0.1503050000000 1.0   0.01
Li     1  0.2979760000000  0.0200300000000  0.1503050000000 1.0   0.01
Li     1 -0.2779460000000 -0.2979760000000  0.1503050000000 1.0   0.01
Li     1  0.0280980000000  0.5273670000000  0.3864700000000 1.0   0.02
Li     1  0.4992680000000 -0.0280980000000  0.3864700000000 1.0   0.02
Li     1 -0.5273670000000 -0.4992680000000  0.3864700000000 1.0   0.02
Li     1 -0.3333330000000  0.3333330000000 -0.0315940000000 1.0  -0.05
Li     1  0.3333330000000 -0.3333330000000 -0.0717210000000 1.0  -0.05
O      2 -0.3065040000000 -0.1647180000000  0.3385170000000 1.0   0.28
O      2  0.1417850000000  0.3065040000000  0.3385170000000 1.0   0.28
O      2  0.1647180000000 -0.1417850000000  0.3385170000000 1.0   0.28
O      2 -0.3507020000000 -0.3436650000000 -0.0595030000000 1.0   0.52
O      2  0.0070370000000  0.3507020000000 -0.0595030000000 1.0   0.52
O      2  0.3436650000000 -0.0070370000000 -0.0595030000000 1.0   0.52
O      2 -0.3333330000000  0.3333330000000 -0.3073790000000 1.0   0.43
O      2 -0.0000000000000  0.0000000000000 -0.3394740000000 1.0   0.37
S      3  0.3333330000000 -0.3333330000000 -0.3571770000000 1.0   0.40
S      3 -0.3333330000000  0.3333330000000  0.2418340000000 1.0   0.00
Fe     4 -0.0364690000000  0.2952450000000 -0.2589020000000 1.0   3.86
Fe     4  0.3317130000000  0.0364690000000 -0.2589020000000 1.0   3.86
Fe     4 -0.2952450000000 -0.3317130000000 -0.2589020000000 1.0   3.86
Fe     4 -0.0000000000000  0.0000000000000  0.4164750000000 1.0   3.40
END
