TITL LFSO-Li5FeS3O-200910-101202-ff95f6 -0.4652 1063.853324 -6.42624460E+003 -9.44422 9.63291 20 (Pm) n - 1
REM
REM Run started: Fri, 11 Sep 2020 09:05:14 +0100 in /lustre/scratch/uccabz1/launch_tmp/launcher_2020-09-10-09-12-01-339819
REM CASTEP 20.1 from code version af48c487+ pr-geom-scf-spinfix Tue Jun 2 15:39:59 2020 +0100
REM Functional Perdew Burke Ernzerhof Relativity Koelling-Harmon Dispersion off
REM Cut-off 340.0000 eV Grid scale 1.7500 Gmax 16.5316 1/A FBSC none
REM MP grid 4 3 1 Offset 0.000 0.000 0.000 No. kpts 6 Spacing 0.07
REM Total runtime: 107930 s
REM Overall efficiency: 75.25 %
REM
REM
REM
REM compiler GCC version 4.9.2
REM options -cpp -iprefix /lustre/shared/ucl/apps/gcc/4.9.2/bin/../lib/gcc/x86_64-unknown-linux-gnu/4.9.2/ -mtune=corei7 -march=x86-64 -g -Og
REM COMMAND_LINE
REM seed -803965537 -1573338395 -64166111 118841258 925783606 1699529971 1777196272 917817970 -1065028687 -778178237 907204016 164671736
REM
REM S 3|1.8|5|6|7|30:31:32(qc=5)
REM O 2|1.5|12|13|15|20:21(qc=5)
REM Li 1|1.3|8|9|10|10U:20(qc=5)
REM Fe 3|2.2|2.0|1.0|8|9|10|40:41:32(qc=5)
REM 
CELL 1.54180    5.18409    6.99955   35.87971   90.00000   90.00000  125.20170
LATT -1
SFAC Li O  S  Fe 
Li     1  0.6056320000000  0.2875340000000  0.2071820000000 1.0  -0.00
Li     1  0.6056320000000  0.2875340000000 -0.2071820000000 1.0  -0.00
Li     1  0.3472830000000 -0.2670420000000  0.2140430000000 1.0   0.06
Li     1  0.3472830000000 -0.2670420000000 -0.2140430000000 1.0   0.06
Li     1 -0.8398110000000  0.1983540000000 -0.2482760000000 1.0  -0.02
Li     1 -0.8398110000000  0.1983540000000  0.2482760000000 1.0  -0.02
Li     1 -0.6361530000000 -0.4833550000000 -0.1432320000000 1.0  -0.07
Li     1 -0.6361530000000 -0.4833550000000  0.1432320000000 1.0  -0.07
Li     1 -0.3710380000000 -0.3458090000000 -0.2813880000000 1.0  -0.03
Li     1 -0.3710380000000 -0.3458090000000  0.2813880000000 1.0  -0.03
O      2  0.4755510000000  0.5289090000000 -0.2372290000000 1.0  -0.30
O      2  0.4755510000000  0.5289090000000  0.2372290000000 1.0  -0.30
S      3  0.1819180000000 -0.1150600000000 -0.2631970000000 1.0  -0.24
S      3  0.1819180000000 -0.1150600000000  0.2631970000000 1.0  -0.24
S      3 -0.1181410000000  0.0749300000000  0.1846830000000 1.0  -0.30
S      3 -0.1181410000000  0.0749300000000 -0.1846830000000 1.0  -0.30
S      3 -0.0698650000000 -0.4049360000000 -0.1634460000000 1.0  -0.28
S      3 -0.0698650000000 -0.4049360000000  0.1634460000000 1.0  -0.28
Fe     4 -0.1522900000000 -0.2461080000000 -0.2120460000000 1.0  -3.54
Fe     4 -0.1522900000000 -0.2461080000000  0.2120460000000 1.0  -3.54
END
