TITL LFSO-Li4Fe3SO4-200930-220744-dbf6f5 -0.2020 178.458347 -5.44452395E+003 11.6842 12.0094 12 (P-1) n - 1
REM
REM Run started: Thu, 01 Oct 2020 18:03:40 +0100 in /lustre/scratch/uccabz1/launch_tmp/launcher_2020-10-01-07-16-49-025484
REM CASTEP 20.1 from code version af48c487+ pr-geom-scf-spinfix Tue Jun 2 15:39:59 2020 +0100
REM Functional Perdew Burke Ernzerhof Relativity Koelling-Harmon Dispersion off
REM Cut-off 340.0000 eV Grid scale 1.7500 Gmax 16.5316 1/A FBSC none
REM MP grid 7 6 1 Offset 0.000 0.000 0.000 No. kpts 21 Spacing 0.07
REM Total runtime: 63894 s
REM Overall efficiency: 83.0833 %
REM
REM
REM
REM compiler GCC version 4.9.2
REM options -cpp -iprefix /lustre/shared/ucl/apps/gcc/4.9.2/bin/../lib/gcc/x86_64-unknown-linux-gnu/4.9.2/ -mtune=corei7 -march=x86-64 -g -Og
REM COMMAND_LINE
REM seed 1093603953 1790265061 967023594 -1497732084 -168626792 -1170387135 395816929 1517746305 -707346942 -1709064879 -1878177600 286913718
REM
REM S 3|1.8|5|6|7|30:31:32(qc=5)
REM O 2|1.5|12|13|15|20:21(qc=5)
REM Li 1|1.3|8|9|10|10U:20(qc=5)
REM Fe 3|2.2|2.0|1.0|8|9|10|40:41:32(qc=5)
REM 
CELL 1.54180    3.44153    5.07017   27.95324   33.89281   59.82170   43.01663
LATT -1
SFAC Li O  S  Fe 
Li     1 -1.0516180000000  0.5562550000000 -0.1524370000000 1.0  -0.03
Li     1  1.0516180000000 -0.5562550000000  0.1524370000000 1.0  -0.03
Li     1  0.4446260000000 -0.0609440000000 -0.3855170000000 1.0  -0.12
Li     1 -0.4446260000000  0.0609440000000  0.3855170000000 1.0  -0.12
O      2 -0.0019760000000  0.2780460000000 -0.3571710000000 1.0   0.24
O      2  0.0019760000000 -0.2780460000000  0.3571710000000 1.0   0.24
O      2 -0.4100610000000 -0.4498170000000 -0.1837990000000 1.0   0.39
O      2  0.4100610000000  0.4498170000000  0.1837990000000 1.0   0.39
S      3  0.0000000000000  0.0000000000000  0.0000000000000 1.0   0.19
Fe     4  0.4334500000000  0.0188080000000  0.2958290000000 1.0   3.55
Fe     4 -0.4334500000000 -0.0188080000000 -0.2958290000000 1.0   3.55
Fe     4  0.0000000000000  0.5000000000000  0.0000000000000 1.0   3.43
END
