TITL LFSO-Li3FeSO2-200911-154859-47b492 0.0013 104.715419 -2.64289603E+003 2.40800 2.56385 7 (P-1) n - 1
REM
REM Run started: Sat, 12 Sep 2020 01:22:55 +0100 in /lustre/scratch/uccabz1/launch_tmp/launcher_2020-09-11-15-36-09-055442
REM CASTEP 20.1 from code version af48c487+ pr-geom-scf-spinfix Tue Jun 2 15:39:59 2020 +0100
REM Functional Perdew Burke Ernzerhof Relativity Koelling-Harmon Dispersion off
REM Cut-off 340.0000 eV Grid scale 1.7500 Gmax 16.5316 1/A FBSC none
REM MP grid 7 4 2 Offset 0.000 0.000 0.000 No. kpts 153 Spacing 0.07
REM Total runtime: 36618.2 s
REM Overall efficiency: 95.3077 %
REM
REM
REM
REM compiler GCC version 4.9.2
REM options -cpp -iprefix /lustre/shared/ucl/apps/gcc/4.9.2/bin/../lib/gcc/x86_64-unknown-linux-gnu/4.9.2/ -mtune=corei7 -march=x86-64 -g -Og
REM COMMAND_LINE
REM seed -536299315 2037972530 -1781244666 1786898579 -1694289939 1655246264 256712911 -1850833129 870047684 -205613784 101994750 -20216247
REM
REM S 3|1.8|5|6|7|30:31:32(qc=5)
REM O 2|1.5|12|13|15|20:21(qc=5)
REM Li 1|1.3|8|9|10|10U:20(qc=5)
REM Fe 3|2.2|2.0|1.0|8|9|10|40:41:32(qc=5)
REM 
CELL 1.54180    2.79751   12.71567   15.91655  143.95230   54.56953  155.65750
LATT -1
SFAC Li O  S  Fe 
Li     1  1.1281570000000  0.3907310000000 -0.1769230000000 1.0  -0.02
Li     1 -1.1281570000000 -0.3907310000000  0.1769230000000 1.0  -0.02
Li     1  0.0000000000000 -0.5000000000000 -0.5000000000000 1.0  -0.02
O      2  1.0856600000000  0.0900720000000  0.4339160000000 1.0   0.09
O      2 -1.0856600000000 -0.0900720000000 -0.4339160000000 1.0   0.09
S      3 -0.5000000000000 -0.5000000000000  0.0000000000000 1.0  -0.01
Fe     4  0.0000000000000  0.0000000000000  0.5000000000000 1.0   2.30
END
