TITL LFSO-Li5FeS3O-200910-101906-61304c -0.0580 414.031263 -6.41953161E+003 9.93540 10.1754 20 (P2/c) n - 1
REM
REM Run started: Thu, 10 Sep 2020 19:01:02 +0100 in /lustre/scratch/uccabz1/launch_tmp/launcher_2020-09-10-09-19-04-366271
REM CASTEP 20.1 from code version af48c487+ pr-geom-scf-spinfix Tue Jun 2 15:39:59 2020 +0100
REM Functional Perdew Burke Ernzerhof Relativity Koelling-Harmon Dispersion off
REM Cut-off 340.0000 eV Grid scale 1.7500 Gmax 16.5316 1/A FBSC none
REM MP grid 4 3 1 Offset 0.000 0.000 0.000 No. kpts 4 Spacing 0.07
REM Total runtime: 34724.4 s
REM Overall efficiency: 97.8333 %
REM
REM
REM
REM compiler GCC version 4.9.2
REM options -cpp -iprefix /lustre/shared/ucl/apps/gcc/4.9.2/bin/../lib/gcc/x86_64-unknown-linux-gnu/4.9.2/ -mtune=corei7 -march=x86-64 -g -Og
REM COMMAND_LINE
REM seed -680180521 595531629 745913617 -318352501 972116168 -1701162276 -868733781 -2088646088 1451572506 -2070438056 2066445750 -1380873292
REM
REM S 3|1.8|5|6|7|30:31:32(qc=5)
REM O 2|1.5|12|13|15|20:21(qc=5)
REM Li 1|1.3|8|9|10|10U:20(qc=5)
REM Fe 3|2.2|2.0|1.0|8|9|10|40:41:32(qc=5)
REM 
CELL 1.54180    3.61758    7.52743   17.26840  118.30051   90.00000   90.00000
LATT -1
SFAC Li O  S  Fe 
Li     1  0.5055720000000  0.1601210000000 -0.0208640000000 1.0  -0.02
Li     1  0.5055720000000  0.3398790000000 -0.4791360000000 1.0  -0.02
Li     1 -0.5055720000000 -0.1601210000000  0.0208640000000 1.0  -0.02
Li     1 -0.5055720000000 -0.3398790000000  0.4791360000000 1.0  -0.02
Li     1  0.5249870000000 -0.0021260000000 -0.3653920000000 1.0  -0.07
Li     1  0.5249870000000 -0.4978740000000 -0.1346080000000 1.0  -0.07
Li     1 -0.5249870000000  0.0021260000000  0.3653920000000 1.0  -0.07
Li     1 -0.5249870000000  0.4978740000000  0.1346080000000 1.0  -0.07
Li     1  0.0252050000000 -0.2500000000000 -0.2500000000000 1.0  -0.01
Li     1 -0.0252050000000  0.2500000000000  0.2500000000000 1.0  -0.01
O      2 -0.4739920000000  0.2500000000000 -0.2500000000000 1.0   0.24
O      2  0.4739920000000 -0.2500000000000  0.2500000000000 1.0   0.24
S      3  0.4769130000000  0.3152220000000  0.3709250000000 1.0   0.47
S      3  0.4769130000000  0.1847780000000  0.1290750000000 1.0   0.47
S      3 -0.4769130000000 -0.3152220000000 -0.3709250000000 1.0   0.47
S      3 -0.4769130000000 -0.1847780000000 -0.1290750000000 1.0   0.47
S      3  0.5000000000000 -0.5000000000000 -0.0000000000000 1.0   0.55
S      3  0.5000000000000  0.0000000000000  0.5000000000000 1.0   0.55
Fe     4  0.0257940000000  0.2500000000000 -0.2500000000000 1.0   3.44
Fe     4 -0.0257940000000 -0.2500000000000  0.2500000000000 1.0   3.44
END
