TITL LFSO-Li3Fe3SO5-200927-040458-374ea4 -0.0063 186.137632 -5.67798554E+003 4.30909 11.2010 12 (I-4) n - 1
REM
REM Run started: Sun, 27 Sep 2020 06:26:14 +0100 in /lustre/scratch/uccabz1/launch_tmp/launcher_2020-09-27-03-04-56-272618
REM CASTEP 20.1 from code version af48c487+ pr-geom-scf-spinfix Tue Jun 2 15:39:59 2020 +0100
REM Functional Perdew Burke Ernzerhof Relativity Koelling-Harmon Dispersion off
REM Cut-off 340.0000 eV Grid scale 1.7500 Gmax 16.5316 1/A FBSC none
REM MP grid 4 4 2 Offset 0.000 0.000 0.000 No. kpts 14 Spacing 0.07
REM Total runtime: 9509.99 s
REM Overall efficiency: 96.8 %
REM
REM
REM
REM compiler GCC version 4.9.2
REM options -cpp -iprefix /lustre/shared/ucl/apps/gcc/4.9.2/bin/../lib/gcc/x86_64-unknown-linux-gnu/4.9.2/ -mtune=corei7 -march=x86-64 -g -Og
REM COMMAND_LINE
REM seed 31252616 -1426642899 117393786 -987084587 1386950074 1160158559 2053673744 2143372080 -912973641 -1714137539 518193438 -947058366
REM
REM S 3|1.8|5|6|7|30:31:32(qc=5)
REM O 2|1.5|12|13|15|20:21(qc=5)
REM Li 1|1.3|8|9|10|10U:20(qc=5)
REM Fe 3|2.2|2.0|1.0|8|9|10|40:41:32(qc=5)
REM 
CELL 1.54180    4.81461    4.81461    8.72182  106.02215  106.02215   90.00000
LATT -1
SFAC Li O  S  Fe 
Li     1 -0.0599880000000  0.4400120000000 -0.1199750000000 1.0  -0.05
Li     1 -0.4400120000000  0.0599880000000  0.1199750000000 1.0  -0.05
Li     1 -0.2500000000000  0.2500000000000 -0.5000000000000 1.0  -0.00
O      2 -0.2240970000000  0.4025240000000  0.1712050000000 1.0   0.06
O      2  0.3953020000000 -0.2313180000000  0.1712050000000 1.0   0.06
O      2  0.2313180000000  0.2240970000000 -0.1712050000000 1.0   0.06
O      2 -0.4025240000000 -0.3953020000000 -0.1712050000000 1.0   0.06
O      2 -0.0000000000000  0.0000000000000  0.0000000000000 1.0   1.07
S      3  0.2500000000000 -0.2500000000000  0.5000000000000 1.0   0.23
Fe     4  0.3888560000000 -0.1111440000000 -0.2222880000000 1.0   3.10
Fe     4  0.1111440000000 -0.3888560000000  0.2222880000000 1.0   3.10
Fe     4  0.5000000000000 -0.5000000000000  0.0000000000000 1.0  -3.32
END
