TITL LFSO-Li4FeSO2-200910-082527-2a4d1e -0.0679 587.371543 -8.52591331E+003 12.0000 12.3921 24 (Cm) n - 1
REM
REM Run started: Fri, 11 Sep 2020 14:56:47 +0100 in /lustre/scratch/uccabz1/launch_tmp/launcher_2020-09-10-07-25-24-118384
REM CASTEP 20.1 from code version af48c487+ pr-geom-scf-spinfix Tue Jun 2 15:39:59 2020 +0100
REM Functional Perdew Burke Ernzerhof Relativity Koelling-Harmon Dispersion off
REM Cut-off 340.0000 eV Grid scale 1.7500 Gmax 16.5316 1/A FBSC none
REM MP grid 5 2 2 Offset 0.000 0.000 0.000 No. kpts 8 Spacing 0.07
REM Total runtime: 138102 s
REM Overall efficiency: 94.7692 %
REM
REM
REM
REM compiler GCC version 4.9.2
REM options -cpp -iprefix /lustre/shared/ucl/apps/gcc/4.9.2/bin/../lib/gcc/x86_64-unknown-linux-gnu/4.9.2/ -mtune=corei7 -march=x86-64 -g -Og
REM COMMAND_LINE
REM seed 243886114 885753897 1514441208 1075170150 1893738156 -1898693677 1506604703 -1333927734 694270787 109002471 -1062264328 1004752705
REM
REM S 3|1.8|5|6|7|30:31:32(qc=5)
REM O 2|1.5|12|13|15|20:21(qc=5)
REM Li 1|1.3|8|9|10|10U:20(qc=5)
REM Fe 3|2.2|2.0|1.0|8|9|10|40:41:32(qc=5)
REM 
CELL 1.54180    8.06130   14.36541   14.36541   68.69749   40.17885   40.17885
LATT -1
SFAC Li O  S  Fe 
Li     1 -0.6123490000000  0.3217270000000 -0.1961870000000 1.0   0.02
Li     1 -0.6123490000000 -0.1961870000000  0.3217270000000 1.0   0.02
Li     1  0.4812810000000  0.1845790000000 -0.3684670000000 1.0   0.02
Li     1  0.4812810000000 -0.3684670000000  0.1845790000000 1.0   0.02
Li     1 -0.1304650000000  0.0180290000000 -0.3240140000000 1.0  -0.05
Li     1 -0.1304650000000 -0.3240140000000  0.0180290000000 1.0  -0.05
Li     1  0.7952300000000 -0.7003600000000 -0.0452880000000 1.0  -0.03
Li     1  0.7952300000000 -0.0452880000000 -0.7003600000000 1.0  -0.03
Li     1 -0.1055310000000 -0.1822350000000  0.1146810000000 1.0  -0.06
Li     1 -0.1055310000000  0.1146810000000 -0.1822350000000 1.0  -0.06
Li     1  0.2140100000000  0.3862440000000  0.0833790000000 1.0  -0.03
Li     1  0.2140100000000  0.0833790000000  0.3862440000000 1.0  -0.03
O      2 -0.2348710000000 -0.0309880000000  0.1768970000000 1.0   0.22
O      2 -0.2348710000000  0.1768970000000 -0.0309880000000 1.0   0.22
O      2  0.0293790000000  0.4069110000000  0.0329490000000 1.0   0.21
O      2  0.0293790000000  0.0329490000000  0.4069110000000 1.0   0.21
O      2  0.2851330000000  0.2241580000000 -0.1824360000000 1.0   0.24
O      2  0.2851330000000 -0.1824360000000  0.2241580000000 1.0   0.24
S      3  0.1533080000000  0.0794080000000 -0.4236520000000 1.0   0.01
S      3  0.1533080000000 -0.4236520000000  0.0794080000000 1.0   0.01
S      3  0.1704020000000  0.0694150000000  0.0694150000000 1.0   0.19
Fe     4  0.0915700000000  0.2601340000000  0.0117930000000 1.0   3.54
Fe     4  0.0915700000000  0.0117930000000  0.2601340000000 1.0   3.54
Fe     4 -0.1353130000000  0.0672230000000  0.0672230000000 1.0   3.61
END
