TITL LFSO-LiFe3S2O3-200909-174556-8edfaa 0.1576 367.013486 -9.41875986E+003 5.89046 6.69780 18 (P3) n - 1
REM
REM Run started: Thu, 10 Sep 2020 13:17:53 +0100 in /lustre/scratch/uccabz1/launch_tmp/launcher_2020-09-09-16-45-54-354446
REM CASTEP 20.1 from code version af48c487+ pr-geom-scf-spinfix Tue Jun 2 15:39:59 2020 +0100
REM Functional Perdew Burke Ernzerhof Relativity Koelling-Harmon Dispersion off
REM Cut-off 340.0000 eV Grid scale 1.7500 Gmax 16.5316 1/A FBSC none
REM MP grid 3 3 2 Offset 0.000 0.000 0.000 No. kpts 5 Spacing 0.07
REM Total runtime: 75359.8 s
REM Overall efficiency: 83.6667 %
REM
REM
REM
REM compiler GCC version 4.9.2
REM options -cpp -iprefix /lustre/shared/ucl/apps/gcc/4.9.2/bin/../lib/gcc/x86_64-unknown-linux-gnu/4.9.2/ -mtune=corei7 -march=x86-64 -g -Og
REM COMMAND_LINE
REM seed -1449876993 475241348 625521463 1052173803 -1788489486 -9621381 -1319998146 -643399514 96418083 -1657311770 -1249199853 205936906
REM
REM S 3|1.8|5|6|7|30:31:32(qc=5)
REM O 2|1.5|12|13|15|20:21(qc=5)
REM Li 1|1.3|8|9|10|10U:20(qc=5)
REM Fe 3|2.2|2.0|1.0|8|9|10|40:41:32(qc=5)
REM 
CELL 1.54180    7.55590    7.55590    7.42299   90.00000   90.00000  120.00000
LATT -1
SFAC Li O  S  Fe 
Li     1  0.3333330000000 -0.3333330000000 -0.5979000000000 1.0   0.05
Li     1 -0.3333330000000  0.3333330000000 -0.1397630000000 1.0   0.00
O      2  0.4762170000000  0.4170460000000 -0.0864680000000 1.0   0.00
O      2 -0.0591710000000 -0.4762170000000 -0.0864680000000 1.0   0.00
O      2 -0.4170460000000  0.0591710000000 -0.0864680000000 1.0   0.00
O      2  0.0925580000000  0.4631320000000  0.2602740000000 1.0   0.07
O      2  0.3705740000000 -0.0925580000000  0.2602740000000 1.0   0.07
O      2 -0.4631320000000 -0.3705740000000  0.2602740000000 1.0   0.07
S      3  0.1935420000000 -0.1010270000000 -0.3689690000000 1.0   0.19
S      3 -0.2945690000000 -0.1935420000000 -0.3689690000000 1.0   0.19
S      3  0.1010270000000  0.2945690000000 -0.3689690000000 1.0   0.19
S      3 -0.0000000000000  0.0000000000000 -0.0270900000000 1.0  -0.10
Fe     4  0.2126110000000  0.3098660000000 -0.1217080000000 1.0   1.28
Fe     4  0.0972550000000 -0.2126110000000 -0.1217080000000 1.0   1.28
Fe     4 -0.3098660000000 -0.0972550000000 -0.1217080000000 1.0   1.28
Fe     4  0.1279150000000  0.5172310000000  0.0494010000000 1.0   0.44
Fe     4  0.3893170000000 -0.1279150000000  0.0494010000000 1.0   0.44
Fe     4 -0.5172310000000 -0.3893170000000  0.0494010000000 1.0   0.44
END
