TITL LFSO-Li4Fe2S4O-200910-194009-c52b7b 0.0300 176.258744 -4.18119402E+003 2.06281 2.26992 11 (P2) n - 1
REM
REM Run started: Thu, 10 Sep 2020 21:31:16 +0100 in /lustre/scratch/uccabz1/launch_tmp/launcher_2020-09-10-18-40-08-225555
REM CASTEP 20.1 from code version af48c487+ pr-geom-scf-spinfix Tue Jun 2 15:39:59 2020 +0100
REM Functional Perdew Burke Ernzerhof Relativity Koelling-Harmon Dispersion off
REM Cut-off 340.0000 eV Grid scale 1.7500 Gmax 16.5316 1/A FBSC none
REM MP grid 5 3 2 Offset 0.000 0.000 0.000 No. kpts 9 Spacing 0.07
REM Total runtime: 6714.93 s
REM Overall efficiency: 91.625 %
REM
REM
REM
REM compiler GCC version 4.9.2
REM options -cpp -iprefix /lustre/shared/ucl/apps/gcc/4.9.2/bin/../lib/gcc/x86_64-unknown-linux-gnu/4.9.2/ -mtune=corei7 -march=x86-64 -g -Og
REM COMMAND_LINE
REM seed 422266209 -16374462 -1655704784 -336072657 1885066664 -151290581 168968581 961933386 869711533 1890953784 -1212168853 287816271
REM
REM S 3|1.8|5|6|7|30:31:32(qc=5)
REM O 2|1.5|12|13|15|20:21(qc=5)
REM Li 1|1.3|8|9|10|10U:20(qc=5)
REM Fe 3|2.2|2.0|1.0|8|9|10|40:41:32(qc=5)
REM 
CELL 1.54180    3.34155    6.23757    8.92787  108.70293   90.00000   90.00000
LATT -1
SFAC Li O  S  Fe 
Li     1  0.1419240000000  0.3302030000000  0.3821070000000 1.0   0.02
Li     1  0.1419240000000 -0.3302030000000 -0.3821070000000 1.0   0.02
Li     1 -0.3105920000000  0.3308120000000 -0.3611830000000 1.0   0.01
Li     1 -0.3105920000000 -0.3308120000000  0.3611830000000 1.0   0.01
O      2 -0.3297020000000  0.5000000000000  0.5000000000000 1.0   0.00
S      3  0.1481100000000 -0.0961440000000  0.2752050000000 1.0   0.05
S      3  0.1481100000000  0.0961440000000 -0.2752050000000 1.0   0.05
S      3  0.6440660000000 -0.2756110000000 -0.1034970000000 1.0   0.05
S      3  0.6440660000000  0.2756110000000  0.1034970000000 1.0   0.05
Fe     4 -0.3570530000000 -0.0497700000000  0.1315620000000 1.0   0.90
Fe     4 -0.3570530000000  0.0497700000000 -0.1315620000000 1.0   0.90
END
