TITL LFSO-Li6FeS2O2-200920-195504-039aa4 0.3634 174.064468 -3.54531845E+003 4.00000 4.13349 11 (R3) n - 1
REM
REM Run started: Sun, 20 Sep 2020 23:02:44 +0100 in /lustre/scratch/uccabz1/launch_tmp/launcher_2020-09-20-18-55-02-987233
REM CASTEP 20.1 from code version af48c487+ pr-geom-scf-spinfix Tue Jun 2 15:39:59 2020 +0100
REM Functional Perdew Burke Ernzerhof Relativity Koelling-Harmon Dispersion off
REM Cut-off 340.0000 eV Grid scale 1.7500 Gmax 16.5316 1/A FBSC none
REM MP grid 3 3 3 Offset 0.000 0.000 0.000 No. kpts 6 Spacing 0.07
REM Total runtime: 14050.6 s
REM Overall efficiency: 95.9167 %
REM
REM
REM
REM compiler GCC version 4.9.2
REM options -cpp -iprefix /lustre/shared/ucl/apps/gcc/4.9.2/bin/../lib/gcc/x86_64-unknown-linux-gnu/4.9.2/ -mtune=corei7 -march=x86-64 -g -Og
REM COMMAND_LINE
REM seed 1534184128 602669644 1145698375 1658633407 1424002930 -1878672975 -29512737 -822452591 -872207104 -1104297455 699132433 -366090681
REM
REM S 3|1.8|5|6|7|30:31:32(qc=5)
REM O 2|1.5|12|13|15|20:21(qc=5)
REM Li 1|1.3|8|9|10|10U:20(qc=5)
REM Fe 3|2.2|2.0|1.0|8|9|10|40:41:32(qc=5)
REM 
CELL 1.54180    6.84484    6.84484    6.84484   50.16060   50.16060   50.16060
LATT -1
SFAC Li O  S  Fe 
Li     1  0.0061250000000 -0.3596700000000  0.1729620000000 1.0   0.01
Li     1 -0.3596700000000  0.1729620000000  0.0061250000000 1.0   0.01
Li     1  0.1729620000000  0.0061250000000 -0.3596700000000 1.0   0.01
Li     1 -0.2969930000000  0.1162770000000  0.6108090000000 1.0  -0.04
Li     1  0.1162770000000  0.6108090000000 -0.2969930000000 1.0  -0.04
Li     1  0.6108090000000 -0.2969930000000  0.1162770000000 1.0  -0.04
O      2  0.2697610000000  0.2697610000000  0.2697610000000 1.0   0.29
O      2 -0.1350100000000 -0.1350100000000 -0.1350100000000 1.0   0.09
S      3  0.0522530000000  0.0522530000000  0.0522530000000 1.0   0.13
S      3 -0.4489490000000 -0.4489490000000 -0.4489490000000 1.0   0.22
Fe     4  0.1717950000000  0.1717950000000  0.1717950000000 1.0   3.39
END
