TITL LFSO-Li2Fe4SO4-200912-004526-cb7b53 -0.0305 178.624477 -5.90442106E+003 13.5069 13.9685 11 (Cmmm) n - 1
REM
REM Run started: Sat, 12 Sep 2020 02:19:56 +0100 in /lustre/scratch/uccabz1/launch_tmp/launcher_2020-09-11-23-45-24-455145
REM CASTEP 20.1 from code version af48c487+ pr-geom-scf-spinfix Tue Jun 2 15:39:59 2020 +0100
REM Functional Perdew Burke Ernzerhof Relativity Koelling-Harmon Dispersion off
REM Cut-off 340.0000 eV Grid scale 1.7500 Gmax 16.5316 1/A FBSC none
REM MP grid 5 3 3 Offset 0.000 0.000 0.000 No. kpts 16 Spacing 0.07
REM Total runtime: 6912.12 s
REM Overall efficiency: 96.1429 %
REM
REM
REM
REM compiler GCC version 4.9.2
REM options -cpp -iprefix /lustre/shared/ucl/apps/gcc/4.9.2/bin/../lib/gcc/x86_64-unknown-linux-gnu/4.9.2/ -mtune=corei7 -march=x86-64 -g -Og
REM COMMAND_LINE
REM seed 232186171 -1691841562 535086018 140649396 810705320 971597232 -1327853750 -813652215 939397892 -1213365619 -596360063 1287813285
REM
REM S 3|1.8|5|6|7|30:31:32(qc=5)
REM O 2|1.5|12|13|15|20:21(qc=5)
REM Li 1|1.3|8|9|10|10U:20(qc=5)
REM Fe 3|2.2|2.0|1.0|8|9|10|40:41:32(qc=5)
REM 
CELL 1.54180    3.63187    6.94834    7.30754   90.00000  104.38885   90.00000
LATT -1
SFAC Li O  S  Fe 
Li     1  0.5000000000000  0.1901990000000  0.0000000000000 1.0  -0.11
Li     1  0.5000000000000 -0.1901990000000  0.0000000000000 1.0  -0.11
O      2  0.1733630000000  0.2118120000000  0.3467250000000 1.0   0.35
O      2 -0.1733630000000  0.2118120000000 -0.3467250000000 1.0   0.35
O      2 -0.1733630000000 -0.2118120000000 -0.3467250000000 1.0   0.35
O      2  0.1733630000000 -0.2118120000000  0.3467250000000 1.0   0.35
S      3  0.5000000000000  0.5000000000000  0.0000000000000 1.0   0.12
Fe     4 -0.3167620000000  0.1789120000000  0.3664760000000 1.0   3.05
Fe     4  0.3167620000000  0.1789120000000 -0.3664760000000 1.0   3.05
Fe     4  0.3167620000000 -0.1789120000000 -0.3664760000000 1.0   3.05
Fe     4 -0.3167620000000 -0.1789120000000  0.3664760000000 1.0   3.05
END
