TITL LFSO-Li5FeS2O2-200921-005905-9b5bcc 0.0165 349.604643 -6.69049845E+003 9.34429 9.39116 20 (P3) n - 1
REM
REM Run started: Mon, 21 Sep 2020 13:36:52 +0100 in /lustre/scratch/uccabz1/launch_tmp/launcher_2020-09-20-23-59-03-733788
REM CASTEP 20.1 from code version af48c487+ pr-geom-scf-spinfix Tue Jun 2 15:39:59 2020 +0100
REM Functional Perdew Burke Ernzerhof Relativity Koelling-Harmon Dispersion off
REM Cut-off 340.0000 eV Grid scale 1.7500 Gmax 16.5316 1/A FBSC none
REM MP grid 3 3 3 Offset 0.000 0.000 0.000 No. kpts 8 Spacing 0.07
REM Total runtime: 45601.6 s
REM Overall efficiency: 83.7 %
REM
REM
REM
REM compiler GCC version 4.9.2
REM options -cpp -iprefix /lustre/shared/ucl/apps/gcc/4.9.2/bin/../lib/gcc/x86_64-unknown-linux-gnu/4.9.2/ -mtune=corei7 -march=x86-64 -g -Og
REM COMMAND_LINE
REM seed -1578999009 -1381352516 -1332809363 -750159891 -471717484 -1271558295 93155354 -334884760 -203578346 -1411956531 1754742291 -1553512079
REM
REM S 3|1.8|5|6|7|30:31:32(qc=5)
REM O 2|1.5|12|13|15|20:21(qc=5)
REM Li 1|1.3|8|9|10|10U:20(qc=5)
REM Fe 3|2.2|2.0|1.0|8|9|10|40:41:32(qc=5)
REM 
CELL 1.54180    7.81103    7.81103    6.61653   90.00000   90.00000  120.00000
LATT -1
SFAC Li O  S  Fe 
Li     1  0.1338950000000 -0.2900860000000  0.3742390000000 1.0  -0.01
Li     1 -0.4239810000000 -0.1338950000000  0.3742390000000 1.0  -0.01
Li     1  0.2900860000000  0.4239810000000  0.3742390000000 1.0  -0.01
Li     1 -0.2903310000000 -0.2262980000000 -0.2904810000000 1.0  -0.03
Li     1  0.0640320000000  0.2903310000000 -0.2904810000000 1.0  -0.03
Li     1  0.2262980000000 -0.0640320000000 -0.2904810000000 1.0  -0.03
Li     1  0.0432380000000 -0.3621610000000  0.0173810000000 1.0  -0.01
Li     1 -0.4053980000000 -0.0432380000000  0.0173810000000 1.0  -0.01
Li     1  0.3621610000000  0.4053980000000  0.0173810000000 1.0  -0.01
Li     1 -0.3333330000000  0.3333330000000  0.6381310000000 1.0   0.00
O      2  0.1942910000000  0.2009790000000  0.2039080000000 1.0   0.47
O      2  0.0066870000000 -0.1942910000000  0.2039080000000 1.0   0.47
O      2 -0.2009790000000 -0.0066870000000  0.2039080000000 1.0   0.47
O      2 -0.0000000000000 -0.0000000000000 -0.2844790000000 1.0   0.20
S      3  0.5668710000000 -0.0000860000000 -0.3206390000000 1.0   0.03
S      3 -0.5669560000000 -0.5668710000000 -0.3206390000000 1.0   0.03
S      3  0.0000860000000  0.5669560000000 -0.3206390000000 1.0   0.03
S      3  0.3333330000000 -0.3333330000000  0.1536540000000 1.0   0.04
Fe     4 -0.0000000000000 -0.0000000000000  0.0216810000000 1.0   3.86
Fe     4 -0.0000000000000 -0.0000000000000 -0.6100180000000 1.0   3.88
END
