TITL LFSO-Li5FeS3O-200910-093641-c6df57 0.0235 692.835024 -3.21192501E+003 3.00000 3.40481 10 (Fmm2) n - 1
REM
REM Run started: Fri, 11 Sep 2020 04:36:58 +0100 in /lustre/scratch/uccabz1/launch_tmp/launcher_2020-09-10-08-36-38-606211
REM CASTEP 20.1 from code version af48c487+ pr-geom-scf-spinfix Tue Jun 2 15:39:59 2020 +0100
REM Functional Perdew Burke Ernzerhof Relativity Koelling-Harmon Dispersion off
REM Cut-off 340.0000 eV Grid scale 1.7500 Gmax 16.5316 1/A FBSC none
REM MP grid 3 3 4 Offset 0.000 0.000 0.000 No. kpts 12 Spacing 0.07
REM Total runtime: 102266 s
REM Overall efficiency: 97.3333 %
REM
REM
REM
REM compiler GCC version 4.9.2
REM options -cpp -iprefix /lustre/shared/ucl/apps/gcc/4.9.2/bin/../lib/gcc/x86_64-unknown-linux-gnu/4.9.2/ -mtune=corei7 -march=x86-64 -g -Og
REM COMMAND_LINE
REM seed -1698291643 385523122 -1809558532 -1114355898 1678836636 -765957340 2082265961 -1898531840 -1484195063 -1534632962 -639722789 -1038120918
REM
REM S 3|1.8|5|6|7|30:31:32(qc=5)
REM O 2|1.5|12|13|15|20:21(qc=5)
REM Li 1|1.3|8|9|10|10U:20(qc=5)
REM Fe 3|2.2|2.0|1.0|8|9|10|40:41:32(qc=5)
REM 
CELL 1.54180   26.86201   26.86201    5.16516   94.25858   94.25858  166.27427
LATT -1
SFAC Li O  S  Fe 
Li     1  0.2142230000000  0.2710720000000  0.0459950000000 1.0   0.01
Li     1 -0.1682270000000 -0.2250770000000  0.0459950000000 1.0   0.01
Li     1 -0.2250770000000 -0.1682270000000  0.0459950000000 1.0   0.01
Li     1  0.2710720000000  0.2142230000000  0.0459950000000 1.0   0.01
Li     1  0.2489330000000  0.2489330000000 -0.5021340000000 1.0  -0.08
O      2  0.0327470000000  0.0327470000000  0.0654940000000 1.0   0.09
S      3 -0.2542900000000 -0.1710520000000 -0.4253420000000 1.0   0.14
S      3 -0.1710520000000 -0.2542900000000 -0.4253420000000 1.0   0.14
S      3 -0.4815630000000 -0.4815630000000  0.0368740000000 1.0   0.01
Fe     4 -0.2002320000000 -0.2002320000000  0.5995350000000 1.0   2.65
END
