TITL LFSO-Li3FeSO2-200911-162722-12901c 0.0117 314.372973 -7.92986132E+003 11.8219 12.0144 21 (P32) n - 1
REM
REM Run started: Fri, 11 Sep 2020 23:47:06 +0100 in /lustre/scratch/uccabz1/launch_tmp/launcher_2020-09-11-15-27-20-762039
REM CASTEP 20.1 from code version af48c487+ pr-geom-scf-spinfix Tue Jun 2 15:39:59 2020 +0100
REM Functional Perdew Burke Ernzerhof Relativity Koelling-Harmon Dispersion off
REM Cut-off 340.0000 eV Grid scale 1.7500 Gmax 16.5316 1/A FBSC none
REM MP grid 3 3 2 Offset 0.000 0.000 0.000 No. kpts 5 Spacing 0.07
REM Total runtime: 28471.9 s
REM Overall efficiency: 74.6923 %
REM
REM
REM
REM compiler GCC version 4.9.2
REM options -cpp -iprefix /lustre/shared/ucl/apps/gcc/4.9.2/bin/../lib/gcc/x86_64-unknown-linux-gnu/4.9.2/ -mtune=corei7 -march=x86-64 -g -Og
REM COMMAND_LINE
REM seed 529933122 1054278925 741959994 246898632 -524327228 945073616 1108634036 -368799297 -1903965876 -1404199683 1545608138 -495234653
REM
REM S 3|1.8|5|6|7|30:31:32(qc=5)
REM O 2|1.5|12|13|15|20:21(qc=5)
REM Li 1|1.3|8|9|10|10U:20(qc=5)
REM Fe 3|2.2|2.0|1.0|8|9|10|40:41:32(qc=5)
REM 
CELL 1.54180    6.11909    6.11909    9.69485   90.00000   90.00000  120.00000
LATT -1
SFAC Li O  S  Fe 
Li     1  0.4679960000000  0.4439150000000  0.2107260000000 1.0  -0.01
Li     1 -0.4439150000000  0.0240810000000 -0.1226070000000 1.0  -0.01
Li     1 -0.0240810000000 -0.4679960000000  0.5440590000000 1.0  -0.01
Li     1  0.4020840000000 -0.1345280000000  0.3790020000000 1.0  -0.01
Li     1  0.1345280000000 -0.4633870000000  0.0456690000000 1.0  -0.01
Li     1  0.4633870000000 -0.4020840000000 -0.2876650000000 1.0  -0.01
Li     1 -0.2722060000000 -0.0191470000000 -0.4518570000000 1.0   0.02
Li     1  0.0191470000000 -0.2530580000000  0.2148100000000 1.0   0.02
Li     1  0.2530580000000  0.2722060000000 -0.1185230000000 1.0   0.02
O      2 -0.2312380000000  0.2469690000000 -0.5711900000000 1.0   0.33
O      2 -0.2469690000000  0.5217930000000  0.0954770000000 1.0   0.33
O      2 -0.5217930000000  0.2312380000000 -0.2378570000000 1.0   0.33
O      2  0.4087040000000 -0.3547930000000 -0.0880170000000 1.0   0.23
O      2  0.3547930000000 -0.2365030000000 -0.4213510000000 1.0   0.23
O      2  0.2365030000000 -0.4087040000000  0.2453160000000 1.0   0.23
S      3 -0.0133170000000  0.0938210000000  0.0868360000000 1.0   0.14
S      3 -0.0938210000000 -0.1071380000000 -0.2464980000000 1.0   0.14
S      3  0.1071380000000  0.0133170000000  0.4201690000000 1.0   0.14
Fe     4 -0.2671130000000 -0.2759490000000 -0.0315180000000 1.0   3.24
Fe     4  0.2759490000000  0.0088360000000 -0.3648520000000 1.0   3.24
Fe     4 -0.0088360000000  0.2671130000000  0.3018150000000 1.0   3.24
END
