TITL LFSO-Li3Fe3S4O2-200928-230630-5274af 0.0032 506.544497 -1.05608715E+004 4.00490 10.9595 24 (Pm) n - 1
REM
REM Run started: Wed, 30 Sep 2020 07:06:51 +0100 in /lustre/scratch/uccabz1/launch_tmp/launcher_2020-09-28-22-06-28-220915
REM CASTEP 20.1 from code version af48c487+ pr-geom-scf-spinfix Tue Jun 2 15:39:59 2020 +0100
REM Functional Perdew Burke Ernzerhof Relativity Koelling-Harmon Dispersion off
REM Cut-off 340.0000 eV Grid scale 1.7500 Gmax 16.5316 1/A FBSC none
REM MP grid 3 2 2 Offset 0.000 0.000 0.000 No. kpts 3 Spacing 0.07
REM Total runtime: 118542 s
REM Overall efficiency: 98.9167 %
REM
REM
REM
REM compiler GCC version 4.9.2
REM options -cpp -iprefix /lustre/shared/ucl/apps/gcc/4.9.2/bin/../lib/gcc/x86_64-unknown-linux-gnu/4.9.2/ -mtune=corei7 -march=x86-64 -g -Og
REM COMMAND_LINE
REM seed -1467909774 682805900 1645235721 1828086496 -831480468 826916718 1636434805 81403429 1375585362 621481501 -1359232328 -752885165
REM
REM S 3|1.8|5|6|7|30:31:32(qc=5)
REM O 2|1.5|12|13|15|20:21(qc=5)
REM Li 1|1.3|8|9|10|10U:20(qc=5)
REM Fe 3|2.2|2.0|1.0|8|9|10|40:41:32(qc=5)
REM 
CELL 1.54180    5.99630    8.09831   10.90771   90.00000  106.99566   90.00000
LATT -1
SFAC Li O  S  Fe 
Li     1 -0.1408390000000  0.2152650000000 -0.3419390000000 1.0   0.02
Li     1 -0.1408390000000 -0.2152650000000 -0.3419390000000 1.0   0.02
Li     1 -0.4750010000000 -0.2578920000000  0.3773140000000 1.0   0.00
Li     1 -0.4750010000000  0.2578920000000  0.3773140000000 1.0   0.00
Li     1  0.1603550000000  0.2943310000000 -0.4696390000000 1.0  -0.02
Li     1  0.1603550000000 -0.2943310000000 -0.4696390000000 1.0  -0.02
O      2 -0.1687930000000  0.2158520000000 -0.5132780000000 1.0   0.28
O      2 -0.1687930000000 -0.2158520000000 -0.5132780000000 1.0   0.28
O      2  0.2116920000000  0.2611790000000  0.3682790000000 1.0   0.09
O      2  0.2116920000000 -0.2611790000000  0.3682790000000 1.0   0.09
S      3  0.2852840000000  0.2947410000000 -0.2487200000000 1.0   0.02
S      3  0.2852840000000 -0.2947410000000 -0.2487200000000 1.0   0.02
S      3 -0.3105520000000  0.2805220000000  0.1717630000000 1.0   0.06
S      3 -0.3105520000000 -0.2805220000000  0.1717630000000 1.0   0.06
S      3 -0.3608080000000 -0.2604470000000 -0.1834710000000 1.0   0.02
S      3 -0.3608080000000  0.2604470000000 -0.1834710000000 1.0   0.02
S      3  0.1363170000000 -0.3533920000000  0.0416130000000 1.0   0.11
S      3  0.1363170000000  0.3533920000000  0.0416130000000 1.0   0.11
Fe     4 -0.0870470000000  0.1583840000000  0.3448090000000 1.0   3.06
Fe     4 -0.0870470000000 -0.1583840000000  0.3448090000000 1.0   3.06
Fe     4 -0.2287760000000  0.3735260000000 -0.0007490000000 1.0  -0.29
Fe     4 -0.2287760000000 -0.3735260000000 -0.0007490000000 1.0  -0.29
Fe     4  0.0568810000000 -0.3689480000000  0.2190900000000 1.0  -1.36
Fe     4  0.0568810000000  0.3689480000000  0.2190900000000 1.0  -1.36
END
