TITL LFSO-Li6FeSO3-200909-231116-51ad08 -0.0150 127.944724 -3.67984954E+003 3.99808 4.09017 11 (C2) n - 1
REM
REM Run started: Thu, 10 Sep 2020 00:50:46 +0100 in /lustre/scratch/uccabz1/launch_tmp/launcher_2020-09-09-22-11-14-074450
REM CASTEP 20.1 from code version af48c487+ pr-geom-scf-spinfix Tue Jun 2 15:39:59 2020 +0100
REM Functional Perdew Burke Ernzerhof Relativity Koelling-Harmon Dispersion off
REM Cut-off 340.0000 eV Grid scale 1.7500 Gmax 16.5316 1/A FBSC none
REM MP grid 5 3 3 Offset 0.000 0.000 0.000 No. kpts 16 Spacing 0.07
REM Total runtime: 6644.33 s
REM Overall efficiency: 94.7857 %
REM
REM
REM
REM compiler GCC version 4.9.2
REM options -cpp -iprefix /lustre/shared/ucl/apps/gcc/4.9.2/bin/../lib/gcc/x86_64-unknown-linux-gnu/4.9.2/ -mtune=corei7 -march=x86-64 -g -Og
REM COMMAND_LINE
REM seed 2033771983 284542925 -2049541962 1696030289 402104252 -882327210 -254354970 1513577460 -678428568 1680780231 -1992436139 -999629154
REM
REM S 3|1.8|5|6|7|30:31:32(qc=5)
REM O 2|1.5|12|13|15|20:21(qc=5)
REM Li 1|1.3|8|9|10|10U:20(qc=5)
REM Fe 3|2.2|2.0|1.0|8|9|10|40:41:32(qc=5)
REM 
CELL 1.54180    4.06522    5.77427    5.77427  102.24108   99.35299   99.35299
LATT -1
SFAC Li O  S  Fe 
Li     1  0.3239100000000 -0.4251420000000 -0.3988180000000 1.0   0.01
Li     1 -0.3239100000000  0.3988180000000  0.4251420000000 1.0   0.01
Li     1  0.1899630000000 -0.2721050000000  0.0381110000000 1.0  -0.00
Li     1 -0.1899630000000 -0.0381110000000  0.2721050000000 1.0  -0.00
Li     1  0.6200330000000  0.4913990000000  0.0311130000000 1.0  -0.06
Li     1 -0.6200330000000 -0.0311130000000 -0.4913990000000 1.0  -0.06
O      2 -0.1299500000000 -0.4720690000000 -0.2116570000000 1.0   0.21
O      2  0.1299500000000  0.2116570000000  0.4720690000000 1.0   0.21
O      2  0.5000000000000 -0.3128110000000  0.3128110000000 1.0   0.02
S      3 -0.5000000000000  0.0624920000000 -0.0624920000000 1.0   0.10
Fe     4  0.0000000000000  0.2227930000000 -0.2227930000000 1.0   3.57
END
