TITL LFSO-Li4Fe3S2O3-200928-010256-012b6e 0.0044 184.824545 -5.31271010E+003 -9.94321 10.1734 12 (Cm) n - 1
REM
REM Run started: Mon, 28 Sep 2020 10:34:40 +0100 in /scratch/scratch/uccabz1/launch_tmp/launcher_2020-09-28-00-02-53-821095
REM CASTEP 19.11| from code version Version unavailable
REM Functional Perdew Burke Ernzerhof Relativity Koelling-Harmon Dispersion off
REM Cut-off 340.0000 eV Grid scale 1.7500 Gmax 16.5316 1/A FBSC none
REM MP grid 3 4 4 Offset 0.000 0.000 0.000 No. kpts 16 Spacing 0.07
REM Total runtime: 37455.5 s
REM Overall efficiency: 89.25 %
REM
REM
REM
REM compiler GCC version 4.9.2
REM options -cpp -iprefix /scratch/UCL/applications/gcc/4.9.2/bin/../lib/gcc/x86_64-unknown-linux-gnu/4.9.2/ -mtune=corei7 -march=x86-64 -g -O2
REM COMMAND_LINE
REM seed 389528539 -1724593054 -1078869255 -1464183661 -1671010936 -829408238 -62621494 -997278608 -292433847 -310040366 842386457 482438796
REM
REM S 3|1.8|5|6|7|30:31:32(qc=5)
REM O 2|1.5|12|13|15|20:21(qc=5)
REM Li 1|1.3|8|9|10|10U:20(qc=5)
REM Fe 3|2.2|2.0|1.0|8|9|10|40:41:32(qc=5)
REM 
CELL 1.54180    6.00319    8.61390    8.61390  155.48218   89.82427   89.82427
LATT -1
SFAC Li O  S  Fe 
Li     1  0.0351330000000  0.1134310000000 -0.4758740000000 1.0   0.02
Li     1  0.0351330000000 -0.4758740000000  0.1134310000000 1.0   0.02
Li     1  0.3618330000000 -0.0596130000000 -0.3322850000000 1.0  -0.04
Li     1  0.3618330000000 -0.3322850000000 -0.0596130000000 1.0  -0.04
O      2  0.0788230000000 -0.3560300000000 -0.0073820000000 1.0  -0.16
O      2  0.0788230000000 -0.0073820000000 -0.3560300000000 1.0  -0.16
O      2  0.0147820000000  0.6340180000000  0.6340180000000 1.0  -0.28
S      3 -0.3717680000000  0.4277660000000  0.1675180000000 1.0  -0.20
S      3 -0.3717680000000  0.1675180000000  0.4277660000000 1.0  -0.20
Fe     4 -0.1297340000000 -0.0912410000000 -0.2721700000000 1.0  -2.98
Fe     4 -0.1297340000000 -0.2721700000000 -0.0912410000000 1.0  -2.98
Fe     4 -0.2713260000000  0.3121520000000  0.3121520000000 1.0  -2.95
END
