TITL LFSO-Li4Fe2SO3-200910-223959-4cd799 -0.0834 316.861317 -8.28754710E+003 -12.0011 12.7446 20 (R3) n - 1
REM
REM Run started: Sat, 12 Sep 2020 00:06:08 +0100 in /lustre/scratch/uccabz1/launch_tmp/launcher_2020-09-10-21-39-57-381661
REM CASTEP 20.1 from code version af48c487+ pr-geom-scf-spinfix Tue Jun 2 15:39:59 2020 +0100
REM Functional Perdew Burke Ernzerhof Relativity Koelling-Harmon Dispersion off
REM Cut-off 340.0000 eV Grid scale 1.7500 Gmax 16.5316 1/A FBSC none
REM MP grid 3 3 3 Offset 0.000 0.000 0.000 No. kpts 6 Spacing 0.07
REM Total runtime: 95060.5 s
REM Overall efficiency: 98.75 %
REM
REM
REM
REM compiler GCC version 4.9.2
REM options -cpp -iprefix /lustre/shared/ucl/apps/gcc/4.9.2/bin/../lib/gcc/x86_64-unknown-linux-gnu/4.9.2/ -mtune=corei7 -march=x86-64 -g -Og
REM COMMAND_LINE
REM seed -1469995163 -1088487433 -2080030667 1860086137 502817125 -2096320900 -610956293 1690863244 927344847 1721046002 -1084475242 -577550240
REM
REM S 3|1.8|5|6|7|30:31:32(qc=5)
REM O 2|1.5|12|13|15|20:21(qc=5)
REM Li 1|1.3|8|9|10|10U:20(qc=5)
REM Fe 3|2.2|2.0|1.0|8|9|10|40:41:32(qc=5)
REM 
CELL 1.54180    7.75388    7.75388    7.75388   58.30700   58.30700   58.30700
LATT -1
SFAC Li O  S  Fe 
Li     1  0.4209930000000  0.0004770000000 -0.3706900000000 1.0   0.00
Li     1 -0.3706900000000  0.4209930000000  0.0004770000000 1.0   0.00
Li     1  0.0004770000000 -0.3706900000000  0.4209930000000 1.0   0.00
Li     1  0.0493460000000  0.4963940000000 -0.0220120000000 1.0   0.07
Li     1 -0.0220120000000  0.0493460000000  0.4963940000000 1.0   0.07
Li     1  0.4963940000000 -0.0220120000000  0.0493460000000 1.0   0.07
Li     1  0.2672970000000  0.2672970000000  0.2672970000000 1.0  -0.01
Li     1 -0.0672650000000 -0.0672650000000 -0.0672650000000 1.0   0.02
O      2 -0.0464170000000 -0.0682100000000  0.3220750000000 1.0  -0.15
O      2  0.3220750000000 -0.0464170000000 -0.0682100000000 1.0  -0.15
O      2 -0.0682100000000  0.3220750000000 -0.0464170000000 1.0  -0.15
O      2  0.2685950000000 -0.0099760000000 -0.5017400000000 1.0  -0.17
O      2 -0.5017400000000  0.2685950000000 -0.0099760000000 1.0  -0.17
O      2 -0.0099760000000 -0.5017400000000  0.2685950000000 1.0  -0.17
S      3  0.4309250000000  0.4309250000000  0.4309250000000 1.0  -0.12
S      3 -0.1871120000000 -0.1871120000000 -0.1871120000000 1.0  -0.08
Fe     4 -0.4823770000000  0.3481250000000 -0.2827180000000 1.0  -3.16
Fe     4 -0.2827180000000 -0.4823770000000  0.3481250000000 1.0  -3.16
Fe     4  0.3481250000000 -0.2827180000000 -0.4823770000000 1.0  -3.16
Fe     4  0.0704870000000  0.0704870000000  0.0704870000000 1.0  -1.58
END
