TITL LFSO-Li5FeSO3-200910-064337-0a67c8 -0.0307 281.257763 -6.95972718E+003 -6.11294 6.92070 20 (Pc) n - 1
REM
REM Run started: Thu, 10 Sep 2020 12:04:43 +0100 in /lustre/scratch/uccabz1/launch_tmp/launcher_2020-09-10-05-43-35-135303
REM CASTEP 20.1 from code version af48c487+ pr-geom-scf-spinfix Tue Jun 2 15:39:59 2020 +0100
REM Functional Perdew Burke Ernzerhof Relativity Koelling-Harmon Dispersion off
REM Cut-off 340.0000 eV Grid scale 1.7500 Gmax 16.5316 1/A FBSC none
REM MP grid 4 3 2 Offset 0.000 0.000 0.000 No. kpts 6 Spacing 0.07
REM Total runtime: 19364.5 s
REM Overall efficiency: 94.2 %
REM
REM
REM
REM compiler GCC version 4.9.2
REM options -cpp -iprefix /lustre/shared/ucl/apps/gcc/4.9.2/bin/../lib/gcc/x86_64-unknown-linux-gnu/4.9.2/ -mtune=corei7 -march=x86-64 -g -Og
REM COMMAND_LINE
REM seed -192772759 500266107 -134129552 -852089514 -306707920 1549552884 1969440163 175681834 -1223876795 881724656 -325344939 196532324
REM
REM S 3|1.8|5|6|7|30:31:32(qc=5)
REM O 2|1.5|12|13|15|20:21(qc=5)
REM Li 1|1.3|8|9|10|10U:20(qc=5)
REM Fe 3|2.2|2.0|1.0|8|9|10|40:41:32(qc=5)
REM 
CELL 1.54180    3.85000    6.35490   12.17003   90.00000   90.00000   70.83715
LATT -1
SFAC Li O  S  Fe 
Li     1  0.2040940000000 -0.4647890000000  0.4206960000000 1.0   0.02
Li     1 -0.2959060000000 -0.4647890000000 -0.4206960000000 1.0   0.02
Li     1  0.0503360000000 -0.1776600000000 -0.4266210000000 1.0   0.03
Li     1  0.5503360000000 -0.1776600000000  0.4266210000000 1.0   0.03
Li     1  0.2435660000000  0.4583740000000 -0.2523310000000 1.0   0.09
Li     1 -0.2564340000000  0.4583740000000  0.2523310000000 1.0   0.09
Li     1  0.5400100000000 -0.2041490000000  0.0623120000000 1.0  -0.00
Li     1  0.0400100000000 -0.2041490000000 -0.0623120000000 1.0  -0.00
Li     1 -0.4972840000000 -0.1194280000000 -0.2491430000000 1.0   0.03
Li     1  0.0027160000000 -0.1194280000000  0.2491430000000 1.0   0.03
O      2  0.0226090000000 -0.1755200000000  0.0992640000000 1.0   0.02
O      2  0.5226090000000 -0.1755200000000 -0.0992640000000 1.0   0.02
O      2  0.5222040000000 -0.1199010000000 -0.4027520000000 1.0  -0.13
O      2  0.0222040000000 -0.1199010000000  0.4027520000000 1.0  -0.13
O      2 -0.2695620000000  0.4834600000000  0.4063880000000 1.0  -0.15
O      2  0.2304380000000  0.4834600000000 -0.4063880000000 1.0  -0.15
S      3  0.6978190000000 -0.4622070000000 -0.1478880000000 1.0   0.02
S      3  0.1978190000000 -0.4622070000000  0.1478880000000 1.0   0.02
Fe     4 -0.1212130000000  0.1817160000000  0.4253610000000 1.0  -2.99
Fe     4 -0.6212130000000  0.1817160000000 -0.4253610000000 1.0  -2.99
END
