TITL LFSO-Li2Fe2S2O-200913-124537-3b39b2 0.0466 347.414206 -9.51793700E+003 -5.30979 7.67232 21 (Cm) n - 1
REM
REM Run started: Tue, 15 Sep 2020 02:35:16 +0100 in /lustre/scratch/uccabz1/launch_tmp/launcher_2020-09-13-11-45-35-601680
REM CASTEP 20.1 from code version af48c487+ pr-geom-scf-spinfix Tue Jun 2 15:39:59 2020 +0100
REM Functional Perdew Burke Ernzerhof Relativity Koelling-Harmon Dispersion off
REM Cut-off 340.0000 eV Grid scale 1.7500 Gmax 16.5316 1/A FBSC none
REM MP grid 5 2 2 Offset 0.000 0.000 0.000 No. kpts 10 Spacing 0.07
REM Total runtime: 144002 s
REM Overall efficiency: 77.5385 %
REM
REM
REM
REM compiler GCC version 4.9.2
REM options -cpp -iprefix /lustre/shared/ucl/apps/gcc/4.9.2/bin/../lib/gcc/x86_64-unknown-linux-gnu/4.9.2/ -mtune=corei7 -march=x86-64 -g -Og
REM COMMAND_LINE
REM seed -6095043 -1161936019 1484873231 1320670749 100289291 1004249293 -495262944 -3311144 -415270703 -2102068353 -511050967 -1407811730
REM
REM S 3|1.8|5|6|7|30:31:32(qc=5)
REM O 2|1.5|12|13|15|20:21(qc=5)
REM Li 1|1.3|8|9|10|10U:20(qc=5)
REM Fe 3|2.2|2.0|1.0|8|9|10|40:41:32(qc=5)
REM 
CELL 1.54180    3.57282   10.08119   10.89229   62.43420   88.77556   87.35335
LATT -1
SFAC Li O  S  Fe 
Li     1  0.4244550000000 -0.5330120000000  0.1343740000000 1.0   0.01
Li     1  0.4244550000000 -0.3986380000000 -0.1343740000000 1.0   0.01
Li     1  0.1689520000000  0.4001430000000 -0.3990180000000 1.0  -0.01
Li     1  0.1689520000000  0.0011250000000  0.3990180000000 1.0  -0.01
Li     1  0.6243670000000  0.6167510000000 -0.5325440000000 1.0   0.01
Li     1  0.6243670000000  0.0842070000000  0.5325440000000 1.0   0.01
O      2  0.1289360000000  0.0210110000000 -0.4397940000000 1.0   0.04
O      2  0.1289360000000 -0.4187830000000  0.4397940000000 1.0   0.04
O      2  0.1039300000000  0.4563110000000  0.0000000000000 1.0  -0.26
S      3  0.1074220000000  0.1298240000000 -0.1872090000000 1.0   0.04
S      3  0.1074220000000 -0.0573850000000  0.1872090000000 1.0   0.04
S      3 -0.3633060000000 -0.3363830000000  0.1761360000000 1.0   0.01
S      3 -0.3633060000000 -0.1602470000000 -0.1761360000000 1.0   0.01
S      3  0.5863510000000  0.1972460000000  0.2712580000000 1.0  -0.07
S      3  0.5863510000000 -0.5314960000000 -0.2712580000000 1.0  -0.07
Fe     4 -0.4051110000000  0.0923750000000  0.1039640000000 1.0  -0.19
Fe     4 -0.4051110000000  0.1963390000000 -0.1039640000000 1.0  -0.19
Fe     4  0.1265150000000 -0.2994380000000  0.2569660000000 1.0   0.38
Fe     4  0.1265150000000 -0.0424730000000 -0.2569660000000 1.0   0.38
Fe     4  0.0782590000000  0.2443740000000  0.1217380000000 1.0  -2.74
Fe     4  0.0782590000000  0.3661120000000 -0.1217380000000 1.0  -2.74
END
