TITL LFSO-Li3Fe3SO5-201001-211508-af1798 0.0529 263.343768 -1.13688012E+004 17.5133 17.9975 24 (Pc) n - 1
REM
REM Run started: Fri, 02 Oct 2020 00:56:44 +0100 in /lustre/scratch/uccabz1/launch_tmp/launcher_2020-10-01-20-15-06-844372
REM CASTEP 20.1 from code version af48c487+ pr-geom-scf-spinfix Tue Jun 2 15:39:59 2020 +0100
REM Functional Perdew Burke Ernzerhof Relativity Koelling-Harmon Dispersion off
REM Cut-off 340.0000 eV Grid scale 1.7500 Gmax 16.5316 1/A FBSC none
REM MP grid 5 2 2 Offset 0.000 0.000 0.000 No. kpts 6 Spacing 0.07
REM Total runtime: 13401.5 s
REM Overall efficiency: 93.375 %
REM
REM
REM
REM compiler GCC version 4.9.2
REM options -cpp -iprefix /lustre/shared/ucl/apps/gcc/4.9.2/bin/../lib/gcc/x86_64-unknown-linux-gnu/4.9.2/ -mtune=corei7 -march=x86-64 -g -Og
REM COMMAND_LINE
REM seed -394131842 355697894 -759346216 -1643215759 -1317327824 -828214756 1891615200 796012084 1566215843 2016863332 -494740541 -2044666477
REM
REM S 3|1.8|5|6|7|30:31:32(qc=5)
REM O 2|1.5|12|13|15|20:21(qc=5)
REM Li 1|1.3|8|9|10|10U:20(qc=5)
REM Fe 3|2.2|2.0|1.0|8|9|10|40:41:32(qc=5)
REM 
CELL 1.54180    3.13307   10.79974    8.00584  103.55426   90.00000   90.00000
LATT -1
SFAC Li O  S  Fe 
Li     1 -0.3047450000000  0.3451780000000  0.4275270000000 1.0   0.01
Li     1  0.3047450000000 -0.1548220000000 -0.0724730000000 1.0   0.01
Li     1  0.3125400000000  0.1159820000000  0.4871260000000 1.0   0.02
Li     1 -0.3125400000000 -0.3840180000000 -0.0128740000000 1.0   0.02
Li     1  0.6437280000000 -0.0278450000000 -0.3261650000000 1.0  -0.02
Li     1 -0.6437280000000 -0.5278450000000  0.1738350000000 1.0  -0.02
O      2  0.3316620000000 -0.0692890000000  0.1819900000000 1.0   0.25
O      2 -0.3316620000000  0.4307110000000 -0.3180100000000 1.0   0.25
O      2  0.1537080000000 -0.0454930000000 -0.4766440000000 1.0   0.32
O      2 -0.1537080000000 -0.5454930000000  0.0233560000000 1.0   0.32
O      2 -0.1655460000000  0.1524480000000  0.3613000000000 1.0   0.32
O      2  0.1655460000000 -0.3475520000000 -0.1387000000000 1.0   0.32
O      2 -0.4932630000000 -0.3304950000000  0.2396640000000 1.0   0.12
O      2  0.4932630000000  0.1695050000000 -0.2603360000000 1.0   0.12
O      2  0.1287170000000  0.4773390000000  0.4119350000000 1.0   0.19
O      2 -0.1287170000000 -0.0226610000000 -0.0880650000000 1.0   0.19
S      3 -0.5359290000000  0.2232240000000  0.0886590000000 1.0  -0.05
S      3  0.5359290000000 -0.2767760000000 -0.4113410000000 1.0  -0.05
Fe     4 -0.0184420000000  0.1538840000000 -0.1041270000000 1.0   2.00
Fe     4  0.0184420000000 -0.3461160000000  0.3958730000000 1.0   2.00
Fe     4  0.3679020000000 -0.1590690000000  0.3549380000000 1.0   2.71
Fe     4 -0.3679020000000  0.3409310000000 -0.1450620000000 1.0   2.71
Fe     4 -0.1426390000000  0.0482140000000  0.1550820000000 1.0   2.88
Fe     4  0.1426390000000  0.5482140000000 -0.3449180000000 1.0   2.88
END
