TITL LFSO-Li3FeS2O-200911-185017-f610a4 0.0252 116.327454 -2.50644987E+003 3.07795 3.30936 7 (R3) n - 1
REM
REM Run started: Fri, 11 Sep 2020 20:37:05 +0100 in /lustre/scratch/uccabz1/launch_tmp/launcher_2020-09-11-17-50-15-261678
REM CASTEP 20.1 from code version af48c487+ pr-geom-scf-spinfix Tue Jun 2 15:39:59 2020 +0100
REM Functional Perdew Burke Ernzerhof Relativity Koelling-Harmon Dispersion off
REM Cut-off 340.0000 eV Grid scale 1.7500 Gmax 16.5316 1/A FBSC none
REM MP grid 3 3 5 Offset 0.000 0.000 0.000 No. kpts 18 Spacing 0.07
REM Total runtime: 6450.52 s
REM Overall efficiency: 85.4286 %
REM
REM
REM
REM compiler GCC version 4.9.2
REM options -cpp -iprefix /lustre/shared/ucl/apps/gcc/4.9.2/bin/../lib/gcc/x86_64-unknown-linux-gnu/4.9.2/ -mtune=corei7 -march=x86-64 -g -Og
REM COMMAND_LINE
REM seed -1158415745 -1695661057 568256996 1280779508 -1095201299 -2097071137 544229131 946262258 2147011599 143350930 1678073088 1365276543
REM
REM S 3|1.8|5|6|7|30:31:32(qc=5)
REM O 2|1.5|12|13|15|20:21(qc=5)
REM Li 1|1.3|8|9|10|10U:20(qc=5)
REM Fe 3|2.2|2.0|1.0|8|9|10|40:41:32(qc=5)
REM 
CELL 1.54180    6.85538    6.85538    4.88207   45.40439   45.40439   60.00000
LATT -1
SFAC Li O  S  Fe 
Li     1  0.0821120000000  0.4932210000000 -0.2236000000000 1.0  -0.05
Li     1  0.4932210000000 -0.3517330000000 -0.2236000000000 1.0  -0.05
Li     1 -0.3517330000000  0.0821120000000 -0.2236000000000 1.0  -0.05
O      2  0.3775060000000  0.3775060000000 -0.1325180000000 1.0   0.11
S      3 -0.0848280000000 -0.0848280000000  0.2544850000000 1.0   0.09
S      3 -0.4090240000000 -0.4090240000000  0.2270730000000 1.0   0.03
Fe     4  0.1638380000000  0.1638380000000 -0.4915130000000 1.0   2.99
END
