TITL LFSO-LiFe3SO4-200909-021943-2e0636 0.0301 276.376991 -9.69026425E+003 -18.4432 18.7734 18 (Pc) n - 1
REM
REM Run started: Wed, 09 Sep 2020 17:12:14 +0100 in /lustre/scratch/uccabz1/launch_tmp/launcher_2020-09-09-01-19-41-464207
REM CASTEP 20.1 from code version af48c487+ pr-geom-scf-spinfix Tue Jun 2 15:39:59 2020 +0100
REM Functional Perdew Burke Ernzerhof Relativity Koelling-Harmon Dispersion off
REM Cut-off 340.0000 eV Grid scale 1.7500 Gmax 16.5316 1/A FBSC none
REM MP grid 4 3 2 Offset 0.000 0.000 0.000 No. kpts 8 Spacing 0.07
REM Total runtime: 45289.1 s
REM Overall efficiency: 95.8889 %
REM
REM
REM
REM compiler GCC version 4.9.2
REM options -cpp -iprefix /lustre/shared/ucl/apps/gcc/4.9.2/bin/../lib/gcc/x86_64-unknown-linux-gnu/4.9.2/ -mtune=corei7 -march=x86-64 -g -Og
REM COMMAND_LINE
REM seed 1873622024 1325827844 1320426392 65755075 1697043329 867938432 -51011194 -1243500339 -1666425738 1566195321 661948591 -736540670
REM
REM S 3|1.8|5|6|7|30:31:32(qc=5)
REM O 2|1.5|12|13|15|20:21(qc=5)
REM Li 1|1.3|8|9|10|10U:20(qc=5)
REM Fe 3|2.2|2.0|1.0|8|9|10|40:41:32(qc=5)
REM 
CELL 1.54180    3.66856    5.66441   13.30773   90.00000   91.95224   90.00000
LATT -1
SFAC Li O  S  Fe 
Li     1 -0.2761540000000 -0.0506210000000 -0.2695000000000 1.0  -0.01
Li     1 -0.2761540000000  0.0506210000000  0.2305000000000 1.0  -0.01
O      2 -0.4381590000000  0.2056390000000 -0.3520310000000 1.0  -0.36
O      2 -0.4381590000000 -0.2056390000000  0.1479690000000 1.0  -0.36
O      2  0.0730640000000  0.1447010000000 -0.1921210000000 1.0  -0.25
O      2  0.0730640000000 -0.1447010000000  0.3078790000000 1.0  -0.25
O      2 -0.4611070000000 -0.3652130000000 -0.2989890000000 1.0  -0.29
O      2 -0.4611070000000  0.3652130000000  0.2010110000000 1.0  -0.29
O      2  0.0213070000000 -0.3946980000000 -0.0124860000000 1.0  -0.31
O      2  0.0213070000000  0.3946980000000  0.4875140000000 1.0  -0.31
S      3 -0.4156780000000  0.1966950000000 -0.0080170000000 1.0  -0.05
S      3 -0.4156780000000 -0.1966950000000  0.4919830000000 1.0  -0.05
Fe     4  0.2828350000000 -0.3751340000000  0.2343580000000 1.0  -2.87
Fe     4  0.2828350000000  0.3751340000000 -0.2656420000000 1.0  -2.87
Fe     4  0.0754760000000 -0.3413040000000  0.4156120000000 1.0  -2.32
Fe     4  0.0754760000000  0.3413040000000 -0.0843880000000 1.0  -2.32
Fe     4 -0.2696310000000  0.4760630000000 -0.4111690000000 1.0  -2.75
Fe     4 -0.2696310000000 -0.4760630000000  0.0888310000000 1.0  -2.75
END
