TITL LFSO-Li5FeSO3-200910-064603-61a431 -0.0383 284.341237 -6.95870973E+003 -7.92831 8.25150 20 (P3) n - 1
REM
REM Run started: Thu, 10 Sep 2020 19:03:21 +0100 in /lustre/scratch/uccabz1/launch_tmp/launcher_2020-09-10-08-02-38-823114
REM CASTEP 20.1 from code version af48c487+ pr-geom-scf-spinfix Tue Jun 2 15:39:59 2020 +0100
REM Functional Perdew Burke Ernzerhof Relativity Koelling-Harmon Dispersion off
REM Cut-off 340.0000 eV Grid scale 1.7500 Gmax 16.5316 1/A FBSC none
REM MP grid 3 3 2 Offset 0.000 0.000 0.000 No. kpts 5 Spacing 0.07
REM Total runtime: 42043.1 s
REM Overall efficiency: 76.0833 %
REM
REM
REM
REM compiler GCC version 4.9.2
REM options -cpp -iprefix /lustre/shared/ucl/apps/gcc/4.9.2/bin/../lib/gcc/x86_64-unknown-linux-gnu/4.9.2/ -mtune=corei7 -march=x86-64 -g -Og
REM COMMAND_LINE
REM seed -33721497 701244702 -725019925 -790802773 784241161 203757580 1014630712 -828203801 -1882525622 1371092555 -1670110216 -472536023
REM
REM S 3|1.8|5|6|7|30:31:32(qc=5)
REM O 2|1.5|12|13|15|20:21(qc=5)
REM Li 1|1.3|8|9|10|10U:20(qc=5)
REM Fe 3|2.2|2.0|1.0|8|9|10|40:41:32(qc=5)
REM 
CELL 1.54180    6.64332    6.64332    7.43942   90.00000   90.00000  120.00000
LATT -1
SFAC Li O  S  Fe 
Li     1  0.1207800000000 -0.1344560000000 -0.2751330000000 1.0   0.01
Li     1  0.1344560000000  0.2552380000000 -0.2751330000000 1.0   0.01
Li     1 -0.2552380000000 -0.1207800000000 -0.2751330000000 1.0   0.01
Li     1 -0.2441660000000 -0.2751900000000  0.3850870000000 1.0   0.04
Li     1  0.2751900000000  0.0310260000000  0.3850870000000 1.0   0.04
Li     1 -0.0310260000000  0.2441660000000  0.3850870000000 1.0   0.04
Li     1 -0.4620350000000  0.0375550000000  0.5793000000000 1.0   0.01
Li     1 -0.0375550000000 -0.4995880000000  0.5793000000000 1.0   0.01
Li     1  0.4995880000000  0.4620350000000  0.5793000000000 1.0   0.01
Li     1 -0.3333340000000  0.3333340000000 -0.2239540000000 1.0   0.08
O      2 -0.1518500000000  0.1779100000000  0.1487780000000 1.0  -0.34
O      2 -0.1779100000000 -0.3297590000000  0.1487780000000 1.0  -0.34
O      2  0.3297590000000  0.1518500000000  0.1487780000000 1.0  -0.34
O      2 -0.1857980000000 -0.3401720000000 -0.3735190000000 1.0   0.00
O      2  0.3401720000000  0.1543750000000 -0.3735190000000 1.0   0.00
O      2 -0.1543750000000  0.1857980000000 -0.3735190000000 1.0   0.00
S      3  0.3333330000000 -0.3333330000000 -0.2677670000000 1.0  -0.00
S      3  0.3333330000000 -0.3333330000000  0.4391740000000 1.0   0.00
Fe     4 -0.3333340000000  0.3333340000000  0.1352290000000 1.0  -3.62
Fe     4 -0.0000000000000  0.0000000000000  0.1120390000000 1.0  -3.56
END
