TITL LFSO-Li4Fe2S4O-200910-170200-030e39 0.0129 429.852071 -8.36002819E+003 4.25676 12.5949 22 (R3) n - 1
REM
REM Run started: Fri, 11 Sep 2020 16:36:10 +0100 in /lustre/scratch/uccabz1/launch_tmp/launcher_2020-09-10-16-01-59-214656
REM CASTEP 20.1 from code version af48c487+ pr-geom-scf-spinfix Tue Jun 2 15:39:59 2020 +0100
REM Functional Perdew Burke Ernzerhof Relativity Koelling-Harmon Dispersion off
REM Cut-off 340.0000 eV Grid scale 1.7500 Gmax 16.5316 1/A FBSC none
REM MP grid 3 3 3 Offset 0.000 0.000 0.000 No. kpts 6 Spacing 0.07
REM Total runtime: 85242.8 s
REM Overall efficiency: 93 %
REM
REM
REM
REM compiler GCC version 4.9.2
REM options -cpp -iprefix /lustre/shared/ucl/apps/gcc/4.9.2/bin/../lib/gcc/x86_64-unknown-linux-gnu/4.9.2/ -mtune=corei7 -march=x86-64 -g -Og
REM COMMAND_LINE
REM seed -297701797 -624319673 2091477966 1580168991 -78730436 -1957116123 1067816446 341976630 -955035539 1405918289 1567812153 60334857
REM
REM S 3|1.8|5|6|7|30:31:32(qc=5)
REM O 2|1.5|12|13|15|20:21(qc=5)
REM Li 1|1.3|8|9|10|10U:20(qc=5)
REM Fe 3|2.2|2.0|1.0|8|9|10|40:41:32(qc=5)
REM 
CELL 1.54180    9.72981    9.72981    9.72981   45.68586   45.68586   45.68586
LATT -1
SFAC Li O  S  Fe 
Li     1 -0.0929150000000 -0.1472060000000  0.2441050000000 1.0   0.02
Li     1 -0.1472060000000  0.2441050000000 -0.0929150000000 1.0   0.02
Li     1  0.2441050000000 -0.0929150000000 -0.1472060000000 1.0   0.02
Li     1  0.0256560000000  0.6728540000000 -0.3140290000000 1.0   0.03
Li     1  0.6728540000000 -0.3140290000000  0.0256560000000 1.0   0.03
Li     1 -0.3140290000000  0.0256560000000  0.6728540000000 1.0   0.03
Li     1  0.3379880000000  0.3379880000000  0.3379880000000 1.0  -0.02
Li     1  0.1036820000000  0.1036820000000  0.1036820000000 1.0  -0.01
O      2  0.0324390000000  0.0324390000000  0.0324390000000 1.0  -0.00
O      2 -0.2489780000000 -0.2489780000000 -0.2489780000000 1.0  -0.29
S      3  0.0253590000000  0.0080880000000 -0.4989690000000 1.0   0.16
S      3  0.0080880000000 -0.4989690000000  0.0253590000000 1.0   0.16
S      3 -0.4989690000000  0.0253590000000  0.0080880000000 1.0   0.16
S      3 -0.0515420000000  0.4709650000000 -0.4901540000000 1.0  -0.10
S      3  0.4709650000000 -0.4901540000000 -0.0515420000000 1.0  -0.10
S      3 -0.4901540000000 -0.0515420000000  0.4709650000000 1.0  -0.10
S      3  0.5248480000000  0.5248480000000  0.5248480000000 1.0   0.05
S      3  0.2458390000000  0.2458390000000  0.2458390000000 1.0  -0.22
Fe     4 -0.0980920000000 -0.6288120000000  0.3851090000000 1.0   2.58
Fe     4 -0.6288120000000  0.3851090000000 -0.0980920000000 1.0   2.58
Fe     4  0.3851090000000 -0.0980920000000 -0.6288120000000 1.0   2.58
Fe     4 -0.3181140000000 -0.3181140000000 -0.3181140000000 1.0  -3.30
END
