TITL LFSO-Li2Fe3S2O2-200921-012654-c28b3e 0.0653 810.837080 -8.94493518E+003 -11.5563 15.8768 18 (Pma2) n - 1
REM
REM Run started: Mon, 21 Sep 2020 19:50:54 +0100 in /lustre/scratch/uccabz1/launch_tmp/launcher_2020-09-21-00-26-52-483457
REM CASTEP 20.1 from code version af48c487+ pr-geom-scf-spinfix Tue Jun 2 15:39:59 2020 +0100
REM Functional Perdew Burke Ernzerhof Relativity Koelling-Harmon Dispersion off
REM Cut-off 340.0000 eV Grid scale 1.7500 Gmax 16.5316 1/A FBSC none
REM MP grid 2 3 2 Offset 0.000 0.000 0.000 No. kpts 2 Spacing 0.07
REM Total runtime: 83025.4 s
REM Overall efficiency: 82.3333 %
REM
REM
REM
REM compiler GCC version 4.9.2
REM options -cpp -iprefix /lustre/shared/ucl/apps/gcc/4.9.2/bin/../lib/gcc/x86_64-unknown-linux-gnu/4.9.2/ -mtune=corei7 -march=x86-64 -g -Og
REM COMMAND_LINE
REM seed -516087366 1076223501 1837823828 1623049677 -1651566654 957835404 -1129518112 -142261025 1098392526 -588041670 -145849934 133494770
REM
REM S 3|1.8|5|6|7|30:31:32(qc=5)
REM O 2|1.5|12|13|15|20:21(qc=5)
REM Li 1|1.3|8|9|10|10U:20(qc=5)
REM Fe 3|2.2|2.0|1.0|8|9|10|40:41:32(qc=5)
REM 
CELL 1.54180    7.30723    6.46329   17.16830   90.00000   90.00000   90.00000
LATT -1
SFAC Li O  S  Fe 
Li     1  0.2353020000000 -0.0012520000000  0.3409320000000 1.0  -0.02
Li     1  0.2353020000000  0.0012520000000 -0.3409320000000 1.0  -0.02
Li     1  0.2353020000000 -0.5012520000000 -0.3409320000000 1.0  -0.02
Li     1  0.2353020000000  0.5012520000000  0.3409320000000 1.0  -0.02
O      2  0.0105020000000  0.0049110000000 -0.3689470000000 1.0  -0.39
O      2  0.0105020000000 -0.0049110000000  0.3689470000000 1.0  -0.39
O      2  0.0105020000000 -0.4950890000000  0.3689470000000 1.0  -0.39
O      2  0.0105020000000  0.4950890000000 -0.3689470000000 1.0  -0.39
S      3 -0.4747530000000 -0.5021860000000 -0.4076830000000 1.0  -0.03
S      3 -0.4747530000000  0.5021860000000  0.4076830000000 1.0  -0.03
S      3 -0.4747530000000 -0.0021860000000  0.4076830000000 1.0  -0.03
S      3 -0.4747530000000  0.0021860000000 -0.4076830000000 1.0  -0.03
Fe     4 -0.1815170000000 -0.4510200000000  0.4220980000000 1.0  -2.90
Fe     4 -0.1815170000000  0.4510200000000 -0.4220980000000 1.0  -2.90
Fe     4 -0.1815170000000  0.0489800000000 -0.4220980000000 1.0  -2.90
Fe     4 -0.1815170000000 -0.0489800000000  0.4220980000000 1.0  -2.90
Fe     4  0.5759340000000 -0.2500000000000  0.5012910000000 1.0   0.91
Fe     4  0.5759340000000  0.2500000000000 -0.5012910000000 1.0   0.91
END
