TITL LFSO-Li4Fe2S2O3-200911-070025-1ea71a 0.0367 248.074784 -4.44791317E+003 9.20265 9.23842 11 (Pm) n - 1
REM
REM Run started: Fri, 11 Sep 2020 10:33:30 +0100 in /lustre/scratch/uccabz1/launch_tmp/launcher_2020-09-11-06-00-23-952291
REM CASTEP 20.1 from code version af48c487+ pr-geom-scf-spinfix Tue Jun 2 15:39:59 2020 +0100
REM Functional Perdew Burke Ernzerhof Relativity Koelling-Harmon Dispersion off
REM Cut-off 340.0000 eV Grid scale 1.7500 Gmax 16.5316 1/A FBSC none
REM MP grid 5 2 3 Offset 0.000 0.000 0.000 No. kpts 8 Spacing 0.07
REM Total runtime: 13165.6 s
REM Overall efficiency: 94.25 %
REM
REM
REM
REM compiler GCC version 4.9.2
REM options -cpp -iprefix /lustre/shared/ucl/apps/gcc/4.9.2/bin/../lib/gcc/x86_64-unknown-linux-gnu/4.9.2/ -mtune=corei7 -march=x86-64 -g -Og
REM COMMAND_LINE
REM seed -2071824743 458667669 -326810526 -601040710 -290463085 553969105 -26410461 1600424855 979964162 1539491362 1460581880 2052281364
REM
REM S 3|1.8|5|6|7|30:31:32(qc=5)
REM O 2|1.5|12|13|15|20:21(qc=5)
REM Li 1|1.3|8|9|10|10U:20(qc=5)
REM Fe 3|2.2|2.0|1.0|8|9|10|40:41:32(qc=5)
REM 
CELL 1.54180    3.72441   11.60791    6.91232   90.00000  123.88768   90.00000
LATT -1
SFAC Li O  S  Fe 
Li     1  0.3473460000000 -0.3150840000000  0.1423960000000 1.0  -0.02
Li     1  0.3473460000000  0.3150840000000  0.1423960000000 1.0  -0.02
Li     1 -0.3496780000000 -0.2033360000000 -0.0576400000000 1.0   0.06
Li     1 -0.3496780000000  0.2033360000000 -0.0576400000000 1.0   0.06
O      2 -0.0795280000000 -0.2879490000000  0.2148910000000 1.0   0.35
O      2 -0.0795280000000  0.2879490000000  0.2148910000000 1.0   0.35
O      2  0.2040780000000 -0.5000000000000  0.5152670000000 1.0   0.55
S      3 -0.0868350000000 -0.2608080000000 -0.2911570000000 1.0   0.28
S      3 -0.0868350000000  0.2608080000000 -0.2911570000000 1.0   0.28
Fe     4  0.2166440000000  0.3432280000000 -0.4864300000000 1.0   3.65
Fe     4  0.2166440000000 -0.3432280000000 -0.4864300000000 1.0   3.65
END
