TITL LFSO-Li2Fe3S2O2-200921-021944-91d473 -0.0210 148.774219 -4.46655525E+003 -0.157548E-01 0.330430E-01 9 (Pm) n - 1
REM
REM Run started: Mon, 21 Sep 2020 04:00:53 +0100 in /lustre/scratch/uccabz1/launch_tmp/launcher_2020-09-21-01-19-42-458728
REM CASTEP 20.1 from code version af48c487+ pr-geom-scf-spinfix Tue Jun 2 15:39:59 2020 +0100
REM Functional Perdew Burke Ernzerhof Relativity Koelling-Harmon Dispersion off
REM Cut-off 340.0000 eV Grid scale 1.7500 Gmax 16.5316 1/A FBSC none
REM MP grid 6 3 2 Offset 0.000 0.000 0.000 No. kpts 12 Spacing 0.07
REM Total runtime: 6532.13 s
REM Overall efficiency: 96.2857 %
REM
REM
REM
REM compiler GCC version 4.9.2
REM options -cpp -iprefix /lustre/shared/ucl/apps/gcc/4.9.2/bin/../lib/gcc/x86_64-unknown-linux-gnu/4.9.2/ -mtune=corei7 -march=x86-64 -g -Og
REM COMMAND_LINE
REM seed 443079932 571187257 667534494 632754116 -550591014 1373460255 -1470406189 190083418 -691892614 382329190 -508644102 127622094
REM
REM S 3|1.8|5|6|7|30:31:32(qc=5)
REM O 2|1.5|12|13|15|20:21(qc=5)
REM Li 1|1.3|8|9|10|10U:20(qc=5)
REM Fe 3|2.2|2.0|1.0|8|9|10|40:41:32(qc=5)
REM 
CELL 1.54180    2.49111    5.77078   10.68273   90.00000  104.35809   90.00000
LATT -1
SFAC Li O  S  Fe 
Li     1  0.5318220000000  0.2647140000000  0.2433410000000 1.0   0.00
Li     1  0.5318220000000 -0.2647140000000  0.2433410000000 1.0   0.00
O      2  0.0714520000000 -0.2492950000000 -0.1833940000000 1.0   0.00
O      2  0.0714520000000  0.2492950000000 -0.1833940000000 1.0   0.00
S      3  0.2311360000000 -0.1951240000000  0.4343270000000 1.0  -0.00
S      3  0.2311360000000  0.1951240000000  0.4343270000000 1.0  -0.00
Fe     4  0.2296230000000  0.2036620000000 -0.0338050000000 1.0   0.00
Fe     4  0.2296230000000 -0.2036620000000 -0.0338050000000 1.0   0.00
Fe     4 -0.1765780000000 -0.5000000000000  0.0545570000000 1.0  -0.02
END
