TITL LFSO-Li4Fe2S3O2-200911-060655-671156 0.0080 290.227651 -4.31189395E+003 8.81178 8.88279 11 (R3) n - 1
REM
REM Run started: Fri, 11 Sep 2020 08:52:21 +0100 in /lustre/scratch/uccabz1/launch_tmp/launcher_2020-09-11-05-06-53-531021
REM CASTEP 20.1 from code version af48c487+ pr-geom-scf-spinfix Tue Jun 2 15:39:59 2020 +0100
REM Functional Perdew Burke Ernzerhof Relativity Koelling-Harmon Dispersion off
REM Cut-off 340.0000 eV Grid scale 1.7500 Gmax 16.5316 1/A FBSC none
REM MP grid 3 3 3 Offset 0.000 0.000 0.000 No. kpts 6 Spacing 0.07
REM Total runtime: 9999.05 s
REM Overall efficiency: 95 %
REM
REM
REM
REM compiler GCC version 4.9.2
REM options -cpp -iprefix /lustre/shared/ucl/apps/gcc/4.9.2/bin/../lib/gcc/x86_64-unknown-linux-gnu/4.9.2/ -mtune=corei7 -march=x86-64 -g -Og
REM COMMAND_LINE
REM seed -1338403759 -73984253 -1688318210 144377389 1861702357 -1384422833 -1285040346 -778527196 -1318278864 -457533270 1603763083 -891678610
REM
REM S 3|1.8|5|6|7|30:31:32(qc=5)
REM O 2|1.5|12|13|15|20:21(qc=5)
REM Li 1|1.3|8|9|10|10U:20(qc=5)
REM Fe 3|2.2|2.0|1.0|8|9|10|40:41:32(qc=5)
REM 
CELL 1.54180    6.67117    6.67117    6.67117   96.73004   96.73004   96.73004
LATT -1
SFAC Li O  S  Fe 
Li     1  0.5986520000000 -0.2633420000000  0.0071620000000 1.0   0.03
Li     1 -0.2633420000000  0.0071620000000  0.5986520000000 1.0   0.03
Li     1  0.0071620000000  0.5986520000000 -0.2633420000000 1.0   0.03
Li     1  0.3503850000000  0.3503850000000  0.3503850000000 1.0  -0.04
O      2 -0.1732530000000 -0.1732530000000 -0.1732530000000 1.0   0.25
O      2  0.1769270000000  0.1769270000000  0.1769270000000 1.0   0.49
S      3  0.3397390000000 -0.2906080000000 -0.2954840000000 1.0   0.33
S      3 -0.2906080000000 -0.2954840000000  0.3397390000000 1.0   0.33
S      3 -0.2954840000000  0.3397390000000 -0.2906080000000 1.0   0.33
Fe     4  0.0095200000000  0.0095200000000  0.0095200000000 1.0   3.85
Fe     4 -0.3699630000000 -0.3699630000000 -0.3699630000000 1.0   3.18
END
