TITL LFSO-Li2Fe4SO4-200911-231943-009736 0.0572 375.047904 -1.18145648E+004 9.72822 14.1236 22 (Imm2) n - 1
REM
REM Run started: Sat, 12 Sep 2020 18:50:51 +0100 in /lustre/scratch/uccabz1/launch_tmp/launcher_2020-09-12-08-36-09-696467
REM CASTEP 20.1 from code version af48c487+ pr-geom-scf-spinfix Tue Jun 2 15:39:59 2020 +0100
REM Functional Perdew Burke Ernzerhof Relativity Koelling-Harmon Dispersion off
REM Cut-off 340.0000 eV Grid scale 1.7500 Gmax 16.5316 1/A FBSC none
REM MP grid 3 2 3 Offset 0.000 0.000 0.000 No. kpts 6 Spacing 0.07
REM Total runtime: 45187 s
REM Overall efficiency: 98.6364 %
REM
REM
REM
REM compiler GCC version 4.9.2
REM options -cpp -iprefix /lustre/shared/ucl/apps/gcc/4.9.2/bin/../lib/gcc/x86_64-unknown-linux-gnu/4.9.2/ -mtune=corei7 -march=x86-64 -g -Og
REM COMMAND_LINE
REM seed -1377374584 1863242814 -773009503 -992457913 -1561054008 1681148864 -514459189 527172480 -558582595 69095774 1530526298 1844279717
REM
REM S 3|1.8|5|6|7|30:31:32(qc=5)
REM O 2|1.5|12|13|15|20:21(qc=5)
REM Li 1|1.3|8|9|10|10U:20(qc=5)
REM Fe 3|2.2|2.0|1.0|8|9|10|40:41:32(qc=5)
REM 
CELL 1.54180    6.09903    9.33327    8.63056  122.73202  110.69167   90.00000
LATT -1
SFAC Li O  S  Fe 
Li     1 -0.3219980000000  0.0467620000000 -0.3071330000000 1.0  -0.01
Li     1 -0.0148640000000 -0.0467620000000  0.3071330000000 1.0  -0.01
Li     1 -0.3219980000000 -0.3538950000000 -0.3071330000000 1.0  -0.01
Li     1 -0.0148640000000  0.3538950000000  0.3071330000000 1.0  -0.01
O      2  0.4450830000000  0.6285820000000 -0.2240230000000 1.0   0.14
O      2 -0.3308940000000 -0.6285820000000  0.2240230000000 1.0   0.14
O      2  0.4450830000000  0.1473950000000 -0.2240230000000 1.0   0.14
O      2 -0.3308940000000 -0.1473950000000  0.2240230000000 1.0   0.14
O      2  0.2328510000000 -0.0848430000000  0.2235490000000 1.0   0.10
O      2  0.0093020000000  0.0848430000000 -0.2235490000000 1.0   0.10
O      2  0.2328510000000  0.3083920000000  0.2235490000000 1.0   0.10
O      2  0.0093020000000 -0.3083920000000 -0.2235490000000 1.0   0.10
S      3 -0.0964160000000  0.2876500000000 -0.4247000000000 1.0   0.15
S      3  0.3282830000000 -0.2876500000000  0.4247000000000 1.0   0.15
Fe     4  0.4080500000000 -0.2478960000000  0.2225120000000 1.0   2.62
Fe     4  0.1855380000000  0.2478960000000 -0.2225120000000 1.0   2.62
Fe     4  0.4080500000000  0.4704080000000  0.2225120000000 1.0   2.62
Fe     4  0.1855380000000 -0.4704080000000 -0.2225120000000 1.0   2.62
Fe     4  0.2964260000000  0.0402470000000 -0.1512530000000 1.0  -0.48
Fe     4 -0.5523210000000 -0.0402470000000  0.1512530000000 1.0  -0.48
Fe     4  0.2964260000000 -0.1915000000000 -0.1512530000000 1.0  -0.48
Fe     4 -0.5523210000000  0.1915000000000  0.1512530000000 1.0  -0.48
END
