TITL LFSO-LiFe3S3O2-200909-154024-54ad7e -1.2539 294.810574 -9.15141224E+003 0.379360E-02 0.432570E-01 18 (Aem2) n - 1
REM
REM Run started: Thu, 10 Sep 2020 01:56:10 +0100 in /lustre/scratch/uccabz1/launch_tmp/launcher_2020-09-09-14-40-23-094148
REM CASTEP 20.1 from code version af48c487+ pr-geom-scf-spinfix Tue Jun 2 15:39:59 2020 +0100
REM Functional Perdew Burke Ernzerhof Relativity Koelling-Harmon Dispersion off
REM Cut-off 340.0000 eV Grid scale 1.7500 Gmax 16.5316 1/A FBSC none
REM MP grid 3 2 3 Offset 0.000 0.000 0.000 No. kpts 4 Spacing 0.07
REM Total runtime: 41389.2 s
REM Overall efficiency: 97.5385 %
REM
REM
REM
REM compiler GCC version 4.9.2
REM options -cpp -iprefix /lustre/shared/ucl/apps/gcc/4.9.2/bin/../lib/gcc/x86_64-unknown-linux-gnu/4.9.2/ -mtune=corei7 -march=x86-64 -g -Og
REM COMMAND_LINE
REM seed 647854378 1272399860 -1863162522 -663038289 88975189 -1719359233 625733600 -1336113476 -1316910875 889840939 1547215643 2049087464
REM
REM S 3|1.8|5|6|7|30:31:32(qc=5)
REM O 2|1.5|12|13|15|20:21(qc=5)
REM Li 1|1.3|8|9|10|10U:20(qc=5)
REM Fe 3|2.2|2.0|1.0|8|9|10|40:41:32(qc=5)
REM 
CELL 1.54180    5.72631    9.26462    6.25124   90.00000  117.25904   90.00000
LATT -1
SFAC Li O  S  Fe 
Li     1 -0.5167190000000  0.3828260000000 -0.5334390000000 1.0
Li     1 -0.0167190000000 -0.3828260000000 -0.5334390000000 1.0
O      2  0.2311380000000 -0.2673170000000  0.4274720000000 1.0
O      2  0.1963340000000  0.2673170000000  0.4274720000000 1.0
O      2 -0.3036660000000 -0.2673170000000  0.4274720000000 1.0
O      2 -0.2688620000000  0.2673170000000  0.4274720000000 1.0
S      3 -0.0390820000000 -0.1548480000000 -0.0340430000000 1.0
S      3  0.0050390000000  0.1548480000000 -0.0340430000000 1.0
S      3  0.5050390000000 -0.1548480000000 -0.0340430000000 1.0
S      3  0.4609180000000  0.1548480000000 -0.0340430000000 1.0
S      3  0.2628410000000 -0.4702070000000  0.0256820000000 1.0
S      3 -0.2371590000000  0.4702070000000  0.0256820000000 1.0
Fe     4 -0.2597090000000 -0.1180250000000 -0.3939060000000 1.0
Fe     4 -0.1341970000000  0.1180250000000 -0.3939060000000 1.0
Fe     4  0.3658030000000 -0.1180250000000 -0.3939060000000 1.0
Fe     4  0.2402910000000  0.1180250000000 -0.3939060000000 1.0
Fe     4  0.3412780000000 -0.2591590000000  0.1825560000000 1.0
Fe     4 -0.1587220000000  0.2591590000000  0.1825560000000 1.0
END
