TITL LFSO-Li4Fe3S3O2-200927-115509-3db501 0.0733 228.860610 -5.17763284E+003 11.7837 11.9542 12 (P-1) n - 1
REM
REM Run started: Sun, 27 Sep 2020 18:34:18 +0100 in /lustre/scratch/uccabz1/launch_tmp/launcher_2020-09-27-10-55-07-670324
REM CASTEP 20.1 from code version af48c487+ pr-geom-scf-spinfix Tue Jun 2 15:39:59 2020 +0100
REM Functional Perdew Burke Ernzerhof Relativity Koelling-Harmon Dispersion off
REM Cut-off 340.0000 eV Grid scale 1.7500 Gmax 16.5316 1/A FBSC none
REM MP grid 4 3 3 Offset 0.000 0.000 0.000 No. kpts 18 Spacing 0.07
REM Total runtime: 24084.8 s
REM Overall efficiency: 97.2 %
REM
REM
REM
REM compiler GCC version 4.9.2
REM options -cpp -iprefix /lustre/shared/ucl/apps/gcc/4.9.2/bin/../lib/gcc/x86_64-unknown-linux-gnu/4.9.2/ -mtune=corei7 -march=x86-64 -g -Og
REM COMMAND_LINE
REM seed -2095464620 -433835906 433700701 -587739877 -991438216 1173098875 1593763098 197943052 1474775705 725157964 1495691985 241640745
REM
REM S 3|1.8|5|6|7|30:31:32(qc=5)
REM O 2|1.5|12|13|15|20:21(qc=5)
REM Li 1|1.3|8|9|10|10U:20(qc=5)
REM Fe 3|2.2|2.0|1.0|8|9|10|40:41:32(qc=5)
REM 
CELL 1.54180    6.98665    6.52258    8.25252   67.89541  135.26423   91.89019
LATT -1
SFAC Li O  S  Fe 
Li     1 -0.4847150000000 -0.3871990000000 -0.2268090000000 1.0  -0.01
Li     1  0.4847150000000  0.3871990000000  0.2268090000000 1.0  -0.01
Li     1 -0.0113440000000 -0.2788770000000  0.1249900000000 1.0  -0.01
Li     1  0.0113440000000  0.2788770000000 -0.1249900000000 1.0  -0.01
O      2 -0.3282430000000 -0.1332420000000 -0.2398720000000 1.0   0.39
O      2  0.3282430000000  0.1332420000000  0.2398720000000 1.0   0.39
S      3  0.1176070000000 -0.3699340000000 -0.2628810000000 1.0   0.21
S      3 -0.1176070000000  0.3699340000000  0.2628810000000 1.0   0.21
S      3 -0.5000000000000  0.5000000000000  0.5000000000000 1.0   0.20
Fe     4  0.3413950000000  0.1584680000000  0.4787390000000 1.0   3.65
Fe     4 -0.3413950000000 -0.1584680000000 -0.4787390000000 1.0   3.65
Fe     4  0.0000000000000  0.0000000000000  0.5000000000000 1.0   3.14
END
