TITL LFSO-Li3Fe3S5O-201002-073241-4bac78 0.0512 430.390835 -1.02899974E+004 8.14221 8.79467 24 (P3) n - 1
REM
REM Run started: Fri, 02 Oct 2020 10:58:45 +0100 in /lustre/scratch/uccabz1/launch_tmp/launcher_2020-10-02-06-32-40-153284
REM CASTEP 20.1 from code version af48c487+ pr-geom-scf-spinfix Tue Jun 2 15:39:59 2020 +0100
REM Functional Perdew Burke Ernzerhof Relativity Koelling-Harmon Dispersion off
REM Cut-off 340.0000 eV Grid scale 1.7500 Gmax 16.5316 1/A FBSC none
REM MP grid 3 3 2 Offset 0.000 0.000 0.000 No. kpts 5 Spacing 0.07
REM Total runtime: 12475.1 s
REM Overall efficiency: 73.2857 %
REM
REM
REM
REM compiler GCC version 4.9.2
REM options -cpp -iprefix /lustre/shared/ucl/apps/gcc/4.9.2/bin/../lib/gcc/x86_64-unknown-linux-gnu/4.9.2/ -mtune=corei7 -march=x86-64 -g -Og
REM COMMAND_LINE
REM seed -661927862 482053683 -856459602 -1300870363 -1310012535 1908851124 -235236075 1244743502 -1946447233 2066157242 1944811900 87572988
REM
REM S 3|1.8|5|6|7|30:31:32(qc=5)
REM O 2|1.5|12|13|15|20:21(qc=5)
REM Li 1|1.3|8|9|10|10U:20(qc=5)
REM Fe 3|2.2|2.0|1.0|8|9|10|40:41:32(qc=5)
REM 
CELL 1.54180    6.93821    6.93821   10.32376   90.00000   90.00000  120.00000
LATT -1
SFAC Li O  S  Fe 
Li     1 -0.3470900000000  0.1028260000000 -0.1256470000000 1.0   0.01
Li     1  0.4499160000000  0.3470900000000 -0.1256470000000 1.0   0.01
Li     1 -0.1028260000000 -0.4499160000000 -0.1256470000000 1.0   0.01
Li     1  0.2681130000000  0.2877620000000  0.3222550000000 1.0   0.02
Li     1  0.0196490000000 -0.2681130000000  0.3222550000000 1.0   0.02
Li     1 -0.2877620000000 -0.0196490000000  0.3222550000000 1.0   0.02
O      2 -0.3333330000000  0.3333330000000 -0.0348550000000 1.0   0.01
O      2 -0.3333330000000  0.3333330000000 -0.3885780000000 1.0   0.15
S      3  0.1892010000000  0.1704500000000  0.0756570000000 1.0   0.01
S      3 -0.0187500000000 -0.1892010000000  0.0756570000000 1.0   0.01
S      3 -0.1704500000000  0.0187500000000  0.0756570000000 1.0   0.01
S      3 -0.3282730000000 -0.2906660000000 -0.2566370000000 1.0   0.06
S      3  0.0376080000000  0.3282730000000 -0.2566370000000 1.0   0.06
S      3  0.2906660000000 -0.0376080000000 -0.2566370000000 1.0   0.06
S      3 -0.0216970000000  0.3792780000000  0.3851870000000 1.0   0.05
S      3  0.4009750000000  0.0216970000000  0.3851870000000 1.0   0.05
S      3 -0.3792780000000 -0.4009750000000  0.3851870000000 1.0   0.05
S      3  0.0000000000000 -0.0000000000000  0.5181210000000 1.0  -0.08
Fe     4  0.1629520000000  0.4814880000000 -0.4372290000000 1.0   0.38
Fe     4  0.3185350000000 -0.1629520000000 -0.4372290000000 1.0   0.38
Fe     4 -0.4814880000000 -0.3185350000000 -0.4372290000000 1.0   0.38
Fe     4 -0.2143600000000  0.1503360000000 -0.4260990000000 1.0   2.16
Fe     4  0.3646960000000  0.2143600000000 -0.4260990000000 1.0   2.16
Fe     4 -0.1503360000000 -0.3646960000000 -0.4260990000000 1.0   2.16
END
