TITL LFSO-LiFe3S4O-200909-093820-fa1808 -0.0216 372.502273 -8.88726977E+003 5.76118 14.3950 18 (C2/c) n - 1
REM
REM Run started: Thu, 10 Sep 2020 05:55:28 +0100 in /lustre/scratch/uccabz1/launch_tmp/launcher_2020-09-09-08-38-18-449563
REM CASTEP 20.1 from code version af48c487+ pr-geom-scf-spinfix Tue Jun 2 15:39:59 2020 +0100
REM Functional Perdew Burke Ernzerhof Relativity Koelling-Harmon Dispersion off
REM Cut-off 340.0000 eV Grid scale 1.7500 Gmax 16.5316 1/A FBSC none
REM MP grid 4 3 2 Offset 0.000 0.000 0.000 No. kpts 12 Spacing 0.07
REM Total runtime: 76358.7 s
REM Overall efficiency: 98.375 %
REM
REM
REM
REM compiler GCC version 4.9.2
REM options -cpp -iprefix /lustre/shared/ucl/apps/gcc/4.9.2/bin/../lib/gcc/x86_64-unknown-linux-gnu/4.9.2/ -mtune=corei7 -march=x86-64 -g -Og
REM COMMAND_LINE
REM seed 877173628 -1730241297 -531502925 229037806 56842080 -2092876202 275633888 955842356 -393074104 831602968 -2087002179 -1951261983
REM
REM S 3|1.8|5|6|7|30:31:32(qc=5)
REM O 2|1.5|12|13|15|20:21(qc=5)
REM Li 1|1.3|8|9|10|10U:20(qc=5)
REM Fe 3|2.2|2.0|1.0|8|9|10|40:41:32(qc=5)
REM 
CELL 1.54180    5.10744    6.15721   13.82422  107.36380  106.02382   65.79408
LATT -1
SFAC Li O  S  Fe 
Li     1 -0.1232840000000  0.1267160000000 -0.2465680000000 1.0  -0.02
Li     1  0.1232840000000 -0.1267160000000  0.2465680000000 1.0  -0.02
O      2  0.1307590000000  0.3807590000000  0.2615180000000 1.0   0.18
O      2 -0.1307590000000 -0.3807590000000 -0.2615180000000 1.0   0.18
S      3  0.5694500000000 -0.2623990000000  0.4018280000000 1.0  -0.06
S      3 -0.1676230000000  0.1642270000000  0.4018280000000 1.0  -0.06
S      3 -0.5694510000000  0.2623990000000 -0.4018280000000 1.0  -0.06
S      3  0.1676230000000 -0.1642270000000 -0.4018280000000 1.0  -0.06
S      3  0.5010320000000 -0.3247140000000  0.1353010000000 1.0  -0.02
S      3 -0.3657310000000 -0.0399850000000  0.1353010000000 1.0  -0.02
S      3 -0.5010320000000  0.3247140000000 -0.1353010000000 1.0  -0.02
S      3  0.3657310000000  0.0399850000000 -0.1353010000000 1.0  -0.02
Fe     4  0.4859770000000 -0.2545930000000 -0.2671400000000 1.0   2.32
Fe     4  0.2468820000000  0.4874530000000 -0.2671400000000 1.0   2.32
Fe     4 -0.4859780000000  0.2545930000000  0.2671400000000 1.0   2.32
Fe     4 -0.2468830000000 -0.4874530000000  0.2671400000000 1.0   2.32
Fe     4  0.2474490000000 -0.0025510000000 -0.5051010000000 1.0  -1.76
Fe     4 -0.2474500000000  0.0025500000000  0.5051010000000 1.0  -1.76
END
