TITL LFSO-Li4Fe2S3O-200911-025623-4429c6 -0.0174 319.150360 -7.75097996E+003 -13.8931 14.0893 20 (R3) n - 1
REM
REM Run started: Fri, 11 Sep 2020 14:03:19 +0100 in /lustre/scratch/uccabz1/launch_tmp/launcher_2020-09-11-12-47-57-458396
REM CASTEP 20.1 from code version af48c487+ pr-geom-scf-spinfix Tue Jun 2 15:39:59 2020 +0100
REM Functional Perdew Burke Ernzerhof Relativity Koelling-Harmon Dispersion off
REM Cut-off 340.0000 eV Grid scale 1.7500 Gmax 16.5316 1/A FBSC none
REM MP grid 3 3 3 Offset 0.000 0.000 0.000 No. kpts 6 Spacing 0.07
REM Total runtime: 39447.4 s
REM Overall efficiency: 94.6667 %
REM
REM
REM
REM compiler GCC version 4.9.2
REM options -cpp -iprefix /lustre/shared/ucl/apps/gcc/4.9.2/bin/../lib/gcc/x86_64-unknown-linux-gnu/4.9.2/ -mtune=corei7 -march=x86-64 -g -Og
REM COMMAND_LINE
REM seed 1804738417 -1773157105 -1638181032 177830704 868738630 -239510875 1220727589 104257864 331562259 831549440 1160152261 1471926148
REM
REM S 3|1.8|5|6|7|30:31:32(qc=5)
REM O 2|1.5|12|13|15|20:21(qc=5)
REM Li 1|1.3|8|9|10|10U:20(qc=5)
REM Fe 3|2.2|2.0|1.0|8|9|10|40:41:32(qc=5)
REM 
CELL 1.54180    6.84921    6.84921    6.84921   93.74873   93.74874   93.74874
LATT -1
SFAC Li O  S  Fe 
Li     1  0.2873050000000 -0.1515540000000 -0.2094530000000 1.0  -0.01
Li     1 -0.1515540000000 -0.2094530000000  0.2873050000000 1.0  -0.01
Li     1 -0.2094530000000  0.2873050000000 -0.1515540000000 1.0  -0.01
Li     1 -0.1519950000000  0.4907610000000 -0.4894100000000 1.0   0.06
Li     1  0.4907610000000 -0.4894100000000 -0.1519950000000 1.0   0.06
Li     1 -0.4894100000000 -0.1519950000000  0.4907610000000 1.0   0.06
Li     1 -0.2079370000000 -0.2079370000000 -0.2079370000000 1.0  -0.06
Li     1  0.1517470000000  0.1517470000000  0.1517470000000 1.0   0.05
O      2  0.3040170000000  0.3040170000000  0.3040170000000 1.0  -0.29
O      2 -0.3670670000000 -0.3670670000000 -0.3670670000000 1.0  -0.12
S      3 -0.4890920000000 -0.0968030000000  0.1126420000000 1.0  -0.20
S      3 -0.0968030000000  0.1126420000000 -0.4890920000000 1.0  -0.20
S      3  0.1126420000000 -0.4890920000000 -0.0968030000000 1.0  -0.20
S      3  0.4686240000000  0.1693960000000 -0.3193510000000 1.0  -0.19
S      3  0.1693960000000 -0.3193510000000  0.4686240000000 1.0  -0.19
S      3 -0.3193510000000  0.4686240000000  0.1693960000000 1.0  -0.19
Fe     4  0.3287330000000 -0.3944180000000  0.1839390000000 1.0  -3.40
Fe     4 -0.3944180000000  0.1839390000000  0.3287330000000 1.0  -3.40
Fe     4  0.1839390000000  0.3287330000000 -0.3944180000000 1.0  -3.40
Fe     4  0.4653390000000  0.4653390000000  0.4653390000000 1.0  -2.25
END
