TITL LFSO-Li4Fe2S3O2-200911-074435-57a545 -0.0166 350.720757 -8.62682234E+003 16.9926 17.0638 22 (Pcc2) n - 1
REM
REM Run started: Fri, 11 Sep 2020 12:40:48 +0100 in /lustre/scratch/uccabz1/launch_tmp/launcher_2020-09-11-06-44-33-318768
REM CASTEP 20.1 from code version af48c487+ pr-geom-scf-spinfix Tue Jun 2 15:39:59 2020 +0100
REM Functional Perdew Burke Ernzerhof Relativity Koelling-Harmon Dispersion off
REM Cut-off 340.0000 eV Grid scale 1.7500 Gmax 16.5316 1/A FBSC none
REM MP grid 3 3 2 Offset 0.000 0.000 0.000 No. kpts 4 Spacing 0.07
REM Total runtime: 20756.4 s
REM Overall efficiency: 97.8889 %
REM
REM
REM
REM compiler GCC version 4.9.2
REM options -cpp -iprefix /lustre/shared/ucl/apps/gcc/4.9.2/bin/../lib/gcc/x86_64-unknown-linux-gnu/4.9.2/ -mtune=corei7 -march=x86-64 -g -Og
REM COMMAND_LINE
REM seed -2145251697 1465120106 661837951 1535451734 -1741364948 -451846860 -146302512 -1685297594 1685765163 781417348 1364785697 601371038
REM
REM S 3|1.8|5|6|7|30:31:32(qc=5)
REM O 2|1.5|12|13|15|20:21(qc=5)
REM Li 1|1.3|8|9|10|10U:20(qc=5)
REM Fe 3|2.2|2.0|1.0|8|9|10|40:41:32(qc=5)
REM 
CELL 1.54180    5.97121    5.67284   10.35376   90.00000   90.00000   90.00000
LATT -1
SFAC Li O  S  Fe 
Li     1  0.3560770000000  0.2285940000000  0.0471320000000 1.0   0.05
Li     1  0.3560770000000 -0.2285940000000 -0.0471320000000 1.0   0.05
Li     1 -0.1439230000000 -0.2285940000000  0.0471320000000 1.0   0.05
Li     1 -0.1439230000000  0.2285940000000 -0.0471320000000 1.0   0.05
Li     1  0.2937740000000  0.1771890000000  0.3038870000000 1.0  -0.06
Li     1  0.2937740000000 -0.1771890000000 -0.3038870000000 1.0  -0.06
Li     1 -0.2062260000000 -0.1771890000000  0.3038870000000 1.0  -0.06
Li     1 -0.2062260000000  0.1771890000000 -0.3038870000000 1.0  -0.06
O      2  0.0874290000000  0.4310230000000  0.3538320000000 1.0   0.41
O      2  0.0874290000000 -0.4310230000000 -0.3538320000000 1.0   0.41
O      2 -0.4125710000000 -0.4310230000000  0.3538320000000 1.0   0.41
O      2 -0.4125710000000  0.4310230000000 -0.3538320000000 1.0   0.41
S      3  0.1903900000000 -0.1685560000000  0.1592210000000 1.0   0.19
S      3  0.1903900000000  0.1685560000000 -0.1592210000000 1.0   0.19
S      3 -0.3096100000000  0.1685560000000  0.1592210000000 1.0   0.19
S      3 -0.3096100000000 -0.1685560000000 -0.1592210000000 1.0   0.19
S      3 -0.1067920000000  0.0000000000000 -0.5000000000000 1.0   0.20
S      3  0.3932080000000  0.0000000000000 -0.5000000000000 1.0   0.20
Fe     4 -0.2082150000000  0.3204020000000  0.3632350000000 1.0   3.56
Fe     4 -0.2082150000000 -0.3204020000000 -0.3632350000000 1.0   3.56
Fe     4  0.2917850000000 -0.3204020000000  0.3632350000000 1.0   3.56
Fe     4  0.2917850000000  0.3204020000000 -0.3632350000000 1.0   3.56
END
