TITL LFSO-Li2Fe4S4O-200911-205444-2bee0e -0.0201 349.532222 -1.10112654E+004 -14.5460 19.0766 22 (P3) n - 1
REM
REM Run started: Sat, 12 Sep 2020 14:57:34 +0100 in /lustre/scratch/uccabz1/launch_tmp/launcher_2020-09-12-06-54-51-763352
REM CASTEP 20.1 from code version af48c487+ pr-geom-scf-spinfix Tue Jun 2 15:39:59 2020 +0100
REM Functional Perdew Burke Ernzerhof Relativity Koelling-Harmon Dispersion off
REM Cut-off 340.0000 eV Grid scale 1.7500 Gmax 16.5316 1/A FBSC none
REM MP grid 3 3 2 Offset 0.000 0.000 0.000 No. kpts 5 Spacing 0.07
REM Total runtime: 41408.4 s
REM Overall efficiency: 76.3077 %
REM
REM
REM
REM compiler GCC version 4.9.2
REM options -cpp -iprefix /lustre/shared/ucl/apps/gcc/4.9.2/bin/../lib/gcc/x86_64-unknown-linux-gnu/4.9.2/ -mtune=corei7 -march=x86-64 -g -Og
REM COMMAND_LINE
REM seed 1129627923 -1285384198 -1891987104 -1527630591 -566240159 -492885976 1207972947 -1917072122 1830471879 -890903127 457826781 -239457746
REM
REM S 3|1.8|5|6|7|30:31:32(qc=5)
REM O 2|1.5|12|13|15|20:21(qc=5)
REM Li 1|1.3|8|9|10|10U:20(qc=5)
REM Fe 3|2.2|2.0|1.0|8|9|10|40:41:32(qc=5)
REM 
CELL 1.54180    6.16889    6.16889   10.60577   90.00000   90.00000  120.00000
LATT -1
SFAC Li O  S  Fe 
Li     1 -0.3484410000000 -0.1591650000000 -0.4244010000000 1.0   0.04
Li     1  0.1591650000000 -0.1892770000000 -0.4244010000000 1.0   0.04
Li     1  0.1892770000000  0.3484410000000 -0.4244010000000 1.0   0.04
Li     1 -0.3333330000000  0.3333330000000  0.5344910000000 1.0   0.20
O      2 -0.3333330000000  0.3333330000000  0.3677950000000 1.0  -0.25
O      2  0.0000000000000 -0.0000000000000 -0.5240270000000 1.0  -0.21
S      3  0.3052710000000  0.1762310000000 -0.1198200000000 1.0   0.07
S      3 -0.1762310000000  0.1290390000000 -0.1198200000000 1.0   0.07
S      3 -0.1290390000000 -0.3052710000000 -0.1198200000000 1.0   0.07
S      3  0.3384440000000 -0.0055110000000  0.1485680000000 1.0  -0.00
S      3  0.0055110000000  0.3439540000000  0.1485680000000 1.0  -0.00
S      3 -0.3439540000000 -0.3384440000000  0.1485680000000 1.0  -0.00
S      3  0.3333340000000 -0.3333340000000 -0.2481860000000 1.0  -0.06
S      3  0.3333340000000 -0.3333340000000  0.4131240000000 1.0  -0.25
Fe     4 -0.1987620000000 -0.2955750000000  0.3468150000000 1.0  -3.34
Fe     4  0.2955750000000  0.0968110000000  0.3468150000000 1.0  -3.34
Fe     4 -0.0968110000000  0.1987620000000  0.3468150000000 1.0  -3.34
Fe     4 -0.4453040000000  0.4774500000000 -0.2326360000000 1.0  -1.41
Fe     4 -0.4774500000000  0.0772450000000 -0.2326360000000 1.0  -1.41
Fe     4 -0.0772450000000  0.4453040000000 -0.2326360000000 1.0  -1.41
Fe     4 -0.3333330000000  0.3333330000000 -0.0075070000000 1.0  -1.82
Fe     4  0.0000000000000 -0.0000000000000  0.1472580000000 1.0   1.78
END
