TITL LFSO-Li2Fe2SO3-200913-105327-18ea8e -0.0320 337.424115 -1.12327092E+004 16.3632 17.2174 24 (Cm) n - 1
REM
REM Run started: Mon, 14 Sep 2020 18:58:11 +0100 in /lustre/scratch/uccabz1/launch_tmp/launcher_2020-09-13-09-53-24-737116
REM CASTEP 20.1 from code version af48c487+ pr-geom-scf-spinfix Tue Jun 2 15:39:59 2020 +0100
REM Functional Perdew Burke Ernzerhof Relativity Koelling-Harmon Dispersion off
REM Cut-off 340.0000 eV Grid scale 1.7500 Gmax 16.5316 1/A FBSC none
REM MP grid 3 2 3 Offset 0.000 0.000 0.000 No. kpts 6 Spacing 0.07
REM Total runtime: 122362 s
REM Overall efficiency: 96.8333 %
REM
REM
REM
REM compiler GCC version 4.9.2
REM options -cpp -iprefix /lustre/shared/ucl/apps/gcc/4.9.2/bin/../lib/gcc/x86_64-unknown-linux-gnu/4.9.2/ -mtune=corei7 -march=x86-64 -g -Og
REM COMMAND_LINE
REM seed -437096566 1337726359 -2038010007 1027768268 182610515 -1516483806 -1354635871 -1084245708 162199712 -1407120240 -599989157 78457099
REM
REM S 3|1.8|5|6|7|30:31:32(qc=5)
REM O 2|1.5|12|13|15|20:21(qc=5)
REM Li 1|1.3|8|9|10|10U:20(qc=5)
REM Fe 3|2.2|2.0|1.0|8|9|10|40:41:32(qc=5)
REM 
CELL 1.54180    7.22950    9.43498    6.50731  109.69098  123.74448   90.00000
LATT -1
SFAC Li O  S  Fe 
Li     1 -0.4735380000000 -0.3923170000000 -0.3303690000000 1.0  -0.02
Li     1  0.1431690000000 -0.3923170000000 -0.3303690000000 1.0  -0.02
Li     1 -0.0977760000000 -0.2687160000000  0.3049940000000 1.0   0.02
Li     1 -0.5972300000000 -0.2687160000000  0.3049940000000 1.0   0.02
Li     1  0.3204320000000  0.0751720000000  0.1916020000000 1.0   0.00
Li     1 -0.1288300000000  0.0751720000000  0.1916020000000 1.0   0.00
O      2  0.2709030000000  0.2229290000000  0.0243600000000 1.0   0.14
O      2 -0.2465440000000  0.2229290000000  0.0243600000000 1.0   0.14
O      2 -0.1343140000000 -0.4751170000000  0.2845780000000 1.0   0.17
O      2  0.4188920000000 -0.4751170000000  0.2845780000000 1.0   0.17
O      2  0.3957370000000 -0.0686580000000  0.3378450000000 1.0   0.28
O      2 -0.0578920000000 -0.0686580000000  0.3378450000000 1.0   0.28
O      2 -0.4853330000000  0.2427980000000 -0.4404880000000 1.0   0.13
O      2  0.0448450000000  0.2427980000000 -0.4404880000000 1.0   0.13
O      2  0.4171080000000 -0.4882970000000 -0.1657830000000 1.0   0.18
S      3  0.2491480000000 -0.1229480000000 -0.2024070000000 1.0  -0.08
S      3 -0.4515560000000 -0.1229480000000 -0.2024070000000 1.0  -0.08
S      3 -0.1171530000000 -0.4850500000000 -0.2343070000000 1.0   0.05
Fe     4 -0.1420060000000  0.3622800000000  0.3845000000000 1.0   2.47
Fe     4 -0.4734940000000  0.3622800000000  0.3845000000000 1.0   2.47
Fe     4 -0.3602260000000  0.3892280000000 -0.0779400000000 1.0   2.55
Fe     4  0.2822860000000  0.3892280000000 -0.0779400000000 1.0   2.55
Fe     4  0.5303070000000  0.0656160000000  0.6625020000000 1.0   2.40
Fe     4  0.1321940000000  0.0656160000000  0.6625020000000 1.0   2.40
END
