TITL LFSO-Li2Fe4S3O2-200912-052122-735831 -0.1060 352.291335 -1.12790312E+004 -5.45463 6.57521 22 (Cm) n - 1
REM
REM Run started: Mon, 14 Sep 2020 05:24:19 +0100 in /lustre/scratch/uccabz1/launch_tmp/launcher_2020-09-14-00-46-36-563934
REM CASTEP 20.1 from code version af48c487+ pr-geom-scf-spinfix Tue Jun 2 15:39:59 2020 +0100
REM Functional Perdew Burke Ernzerhof Relativity Koelling-Harmon Dispersion off
REM Cut-off 340.0000 eV Grid scale 1.7500 Gmax 16.5316 1/A FBSC none
REM MP grid 3 2 2 Offset 0.000 0.000 0.000 No. kpts 5 Spacing 0.07
REM Total runtime: 174734 s
REM Overall efficiency: 73.4545 %
REM
REM
REM
REM compiler GCC version 4.9.2
REM options -cpp -iprefix /lustre/shared/ucl/apps/gcc/4.9.2/bin/../lib/gcc/x86_64-unknown-linux-gnu/4.9.2/ -mtune=corei7 -march=x86-64 -g -Og
REM COMMAND_LINE
REM seed 1462606469 1927679130 1823113113 2031891480 -1182760089 -2081347327 1640603196 1219747168 1959094990 732735283 -2134824063 -316053684
REM
REM S 3|1.8|5|6|7|30:31:32(qc=5)
REM O 2|1.5|12|13|15|20:21(qc=5)
REM Li 1|1.3|8|9|10|10U:20(qc=5)
REM Fe 3|2.2|2.0|1.0|8|9|10|40:41:32(qc=5)
REM 
CELL 1.54180    5.88030    7.83218    7.83218   91.82228   81.49365   81.49365
LATT -1
SFAC Li O  S  Fe 
Li     1  0.3088560000000 -0.2634890000000  0.4298790000000 1.0  -0.01
Li     1  0.3088560000000  0.4298790000000 -0.2634890000000 1.0  -0.01
Li     1  0.2410000000000  0.0430630000000 -0.2627080000000 1.0  -0.01
Li     1  0.2410000000000 -0.2627080000000  0.0430630000000 1.0  -0.01
O      2  0.4623070000000 -0.4058570000000 -0.1478320000000 1.0  -0.06
O      2  0.4623070000000 -0.1478320000000 -0.4058570000000 1.0  -0.06
O      2  0.4498470000000  0.2083310000000 -0.3643030000000 1.0  -0.14
O      2  0.4498470000000 -0.3643030000000  0.2083310000000 1.0  -0.14
S      3 -0.0764950000000 -0.3807980000000  0.3763680000000 1.0   0.02
S      3 -0.0764950000000  0.3763680000000 -0.3807980000000 1.0   0.02
S      3 -0.4694890000000  0.2112730000000 -0.0233230000000 1.0   0.00
S      3 -0.4694890000000 -0.0233230000000  0.2112730000000 1.0   0.00
S      3 -0.0454510000000  0.0049700000000 -0.5178080000000 1.0  -0.01
S      3 -0.0454510000000 -0.5178080000000  0.0049700000000 1.0  -0.01
Fe     4 -0.2293830000000 -0.2169540000000 -0.4088820000000 1.0   0.16
Fe     4 -0.2293830000000 -0.4088820000000 -0.2169540000000 1.0   0.16
Fe     4 -0.2526130000000 -0.2882050000000  0.1768670000000 1.0  -0.37
Fe     4 -0.2526130000000  0.1768670000000 -0.2882050000000 1.0  -0.37
Fe     4 -0.1250850000000  0.0175260000000  0.2043790000000 1.0  -0.13
Fe     4 -0.1250850000000  0.2043790000000  0.0175260000000 1.0  -0.13
Fe     4 -0.4236700000000  0.0371190000000 -0.5233780000000 1.0  -2.10
Fe     4 -0.4236700000000 -0.5233780000000  0.0371190000000 1.0  -2.10
END
