TITL LFSO-Li4Fe2S3O2-200911-051326-0daabb 0.0305 341.727800 -8.62965963E+003 13.2758 13.7000 22 (Pcc2) n - 1
REM
REM Run started: Fri, 11 Sep 2020 14:52:18 +0100 in /lustre/scratch/uccabz1/launch_tmp/launcher_2020-09-11-04-13-24-996521
REM CASTEP 20.1 from code version af48c487+ pr-geom-scf-spinfix Tue Jun 2 15:39:59 2020 +0100
REM Functional Perdew Burke Ernzerhof Relativity Koelling-Harmon Dispersion off
REM Cut-off 340.0000 eV Grid scale 1.7500 Gmax 16.5316 1/A FBSC none
REM MP grid 5 2 1 Offset 0.000 0.000 0.000 No. kpts 3 Spacing 0.07
REM Total runtime: 38466.6 s
REM Overall efficiency: 92.25 %
REM
REM
REM
REM compiler GCC version 4.9.2
REM options -cpp -iprefix /lustre/shared/ucl/apps/gcc/4.9.2/bin/../lib/gcc/x86_64-unknown-linux-gnu/4.9.2/ -mtune=corei7 -march=x86-64 -g -Og
REM COMMAND_LINE
REM seed 1953264441 -1730877928 -2126486652 -1042842009 -568373931 -1484600819 -71237543 553132067 973670463 -1197467349 -1278191193 -1757382398
REM
REM S 3|1.8|5|6|7|30:31:32(qc=5)
REM O 2|1.5|12|13|15|20:21(qc=5)
REM Li 1|1.3|8|9|10|10U:20(qc=5)
REM Fe 3|2.2|2.0|1.0|8|9|10|40:41:32(qc=5)
REM 
CELL 1.54180    3.37270    7.38100   13.72736   90.00000   90.00000   90.00000
LATT -1
SFAC Li O  S  Fe 
Li     1 -0.4784220000000 -0.1621890000000 -0.3640750000000 1.0  -0.01
Li     1  0.4784220000000 -0.1621890000000  0.3640750000000 1.0  -0.01
Li     1  0.4784220000000  0.3378110000000 -0.3640750000000 1.0  -0.01
Li     1 -0.4784220000000  0.3378110000000  0.3640750000000 1.0  -0.01
Li     1 -0.0277220000000 -0.4124410000000  0.3971480000000 1.0   0.00
Li     1  0.0277220000000 -0.4124410000000 -0.3971480000000 1.0   0.00
Li     1  0.0277220000000  0.0875590000000  0.3971480000000 1.0   0.00
Li     1 -0.0277220000000  0.0875590000000 -0.3971480000000 1.0   0.00
O      2 -0.4543120000000  0.0863350000000  0.3220770000000 1.0   0.26
O      2  0.4543120000000  0.0863350000000 -0.3220770000000 1.0   0.26
O      2  0.4543120000000 -0.4136650000000  0.3220770000000 1.0   0.26
O      2 -0.4543120000000 -0.4136650000000 -0.3220770000000 1.0   0.26
S      3  0.1860470000000 -0.1991660000000 -0.1465320000000 1.0   0.06
S      3 -0.1860470000000 -0.1991660000000  0.1465320000000 1.0   0.06
S      3 -0.1860470000000  0.3008340000000 -0.1465320000000 1.0   0.06
S      3  0.1860470000000  0.3008340000000  0.1465320000000 1.0   0.06
S      3  0.0000000000000 -0.1622450000000  0.5000000000000 1.0  -0.04
S      3  0.0000000000000  0.3377550000000 -0.5000000000000 1.0  -0.04
Fe     4  0.6682810000000 -0.3942070000000 -0.1941200000000 1.0   3.02
Fe     4 -0.6682810000000 -0.3942070000000  0.1941200000000 1.0   3.02
Fe     4 -0.6682810000000  0.1057930000000 -0.1941200000000 1.0   3.02
Fe     4  0.6682810000000  0.1057930000000  0.1941200000000 1.0   3.02
END
