TITL LFSO-Li3Fe3S4O2-201002-144126-889a4a -0.0905 433.283851 -1.05652933E+004 10.2198 20.9802 24 (P1) n - 1
REM
REM Run started: Sat, 03 Oct 2020 03:28:00 +0100 in /scratch/scratch/mmm0366/launch_tmp/launcher_2020-10-02-13-41-25-098635
REM CASTEP 19.11| from code version Version unavailable
REM Functional Perdew Burke Ernzerhof Relativity Koelling-Harmon Dispersion off
REM Cut-off 340.0000 eV Grid scale 1.7500 Gmax 16.5316 1/A FBSC none
REM MP grid 4 2 2 Offset 0.000 0.000 0.000 No. kpts 4 Spacing 0.07
REM Total runtime: 51634.7 s
REM Overall efficiency: 79.0833 %
REM
REM
REM
REM compiler GCC version 4.9.2
REM options -cpp -iprefix /scratch/UCL/applications/gcc/4.9.2/bin/../lib/gcc/x86_64-unknown-linux-gnu/4.9.2/ -mtune=corei7 -march=x86-64 -g -O2
REM COMMAND_LINE
REM seed -759819912 -231784327 777159752 -1126417158 -912665303 761695687 -608598305 458364334 -1807046549 -1296441397 343446818 1643192064
REM
REM S 3|1.8|5|6|7|30:31:32(qc=5)
REM O 2|1.5|12|13|15|20:21(qc=5)
REM Li 1|1.3|8|9|10|10U:20(qc=5)
REM Fe 3|2.2|2.0|1.0|8|9|10|40:41:32(qc=5)
REM 
CELL 1.54180    5.92662   16.11328    7.79875   90.00000   90.00000  144.42435
LATT -1
SFAC Li O  S  Fe 
Li     1 -0.2962350000000  0.2953160000000  0.3877670000000 1.0  -0.01
Li     1 -0.2037650000000  0.2046840000000 -0.1122330000000 1.0  -0.01
Li     1  0.2962350000000 -0.2953160000000 -0.3877670000000 1.0  -0.01
Li     1  0.2037650000000 -0.2046840000000  0.1122330000000 1.0  -0.01
Li     1  0.0000000000000 -0.5000000000000 -0.0000000000000 1.0  -0.01
Li     1  0.5000000000000  0.0000000000000 -0.5000000000000 1.0  -0.01
O      2  0.2342950000000  0.4752120000000  0.3327380000000 1.0   0.09
O      2  0.2657050000000  0.0247880000000 -0.1672620000000 1.0   0.09
O      2 -0.2342950000000 -0.4752120000000 -0.3327380000000 1.0   0.09
O      2 -0.2657050000000 -0.0247880000000  0.1672620000000 1.0   0.09
S      3  0.0199180000000  0.3929300000000 -0.2980670000000 1.0   0.20
S      3  0.4800820000000  0.1070700000000  0.2019330000000 1.0   0.20
S      3 -0.0199180000000 -0.3929300000000  0.2980670000000 1.0   0.20
S      3 -0.4800820000000 -0.1070700000000 -0.2019330000000 1.0   0.20
S      3  0.1604810000000  0.2363470000000  0.4535590000000 1.0   0.22
S      3 -0.6604810000000  0.2636530000000 -0.0464410000000 1.0   0.22
S      3 -0.1604810000000 -0.2363470000000 -0.4535590000000 1.0   0.22
S      3  0.6604810000000 -0.2636530000000  0.0464410000000 1.0   0.22
Fe     4 -0.0818990000000  0.1369340000000  0.1828690000000 1.0   3.38
Fe     4 -0.4181010000000  0.3630660000000 -0.3171310000000 1.0   3.38
Fe     4  0.0818990000000 -0.1369340000000 -0.1828690000000 1.0   3.38
Fe     4  0.4181010000000 -0.3630660000000  0.3171310000000 1.0   3.38
Fe     4  0.0000000000000  0.0000000000000 -0.0000000000000 1.0  -2.62
Fe     4 -0.5000000000000  0.5000000000000 -0.5000000000000 1.0  -2.62
END
