TITL LFSO-Li3FeSO2-200911-162757-044a67 -0.0287 378.776922 -7.92546137E+003 8.94772 9.42663 21 (Pmm2) n - 1
REM
REM Run started: Sat, 12 Sep 2020 08:40:18 +0100 in /lustre/scratch/uccabz1/launch_tmp/launcher_2020-09-12-07-25-41-848334
REM CASTEP 20.1 from code version af48c487+ pr-geom-scf-spinfix Tue Jun 2 15:39:59 2020 +0100
REM Functional Perdew Burke Ernzerhof Relativity Koelling-Harmon Dispersion off
REM Cut-off 340.0000 eV Grid scale 1.7500 Gmax 16.5316 1/A FBSC none
REM MP grid 4 2 2 Offset 0.000 0.000 0.000 No. kpts 2 Spacing 0.07
REM Total runtime: 57466.3 s
REM Overall efficiency: 85.75 %
REM
REM
REM
REM compiler GCC version 4.9.2
REM options -cpp -iprefix /lustre/shared/ucl/apps/gcc/4.9.2/bin/../lib/gcc/x86_64-unknown-linux-gnu/4.9.2/ -mtune=corei7 -march=x86-64 -g -Og
REM COMMAND_LINE
REM seed 518902793 2060810548 -787401572 -243710349 -2057261391 -999655516 -936479626 1064906529 -1166575430 -834801074 828374745 -2049034679
REM
REM S 3|1.8|5|6|7|30:31:32(qc=5)
REM O 2|1.5|12|13|15|20:21(qc=5)
REM Li 1|1.3|8|9|10|10U:20(qc=5)
REM Fe 3|2.2|2.0|1.0|8|9|10|40:41:32(qc=5)
REM 
CELL 1.54180    3.67568    9.15999   11.24994   90.00000   90.00000   90.00000
LATT -1
SFAC Li O  S  Fe 
Li     1  0.3129490000000  0.2945340000000 -0.2851150000000 1.0   0.00
Li     1  0.3129490000000 -0.2945340000000  0.2851150000000 1.0   0.00
Li     1  0.3129490000000  0.2945340000000  0.2851150000000 1.0   0.00
Li     1  0.3129490000000 -0.2945340000000 -0.2851150000000 1.0   0.00
Li     1 -0.0853270000000 -0.1534800000000 -0.1158510000000 1.0  -0.01
Li     1 -0.0853270000000  0.1534800000000  0.1158510000000 1.0  -0.01
Li     1 -0.0853270000000 -0.1534800000000  0.1158510000000 1.0  -0.01
Li     1 -0.0853270000000  0.1534800000000 -0.1158510000000 1.0  -0.01
Li     1 -0.4267410000000  0.0000000000000  0.5000000000000 1.0   0.00
O      2 -0.2142670000000 -0.3031570000000 -0.2111050000000 1.0   0.19
O      2 -0.2142670000000  0.3031570000000  0.2111050000000 1.0   0.19
O      2 -0.2142670000000 -0.3031570000000  0.2111050000000 1.0   0.19
O      2 -0.2142670000000  0.3031570000000 -0.2111050000000 1.0   0.19
O      2  0.2856480000000 -0.5000000000000  0.2600040000000 1.0   0.08
O      2  0.2856480000000  0.5000000000000 -0.2600040000000 1.0   0.08
S      3  0.0745340000000  0.0000000000000  0.4004780000000 1.0   0.01
S      3  0.0745340000000  0.0000000000000 -0.4004780000000 1.0   0.01
S      3  0.3175840000000  0.0000000000000  0.0000000000000 1.0   0.01
Fe     4 -0.2174250000000  0.5000000000000  0.2188280000000 1.0   2.41
Fe     4 -0.2174250000000 -0.5000000000000 -0.2188280000000 1.0   2.41
Fe     4  0.6227170000000 -0.5000000000000  0.0000000000000 1.0   3.20
END
