TITL LFSO-Li3Fe3S4O2-200929-110644-a2560d -0.1845 427.221481 -1.05613179E+004 16.9542 17.5988 24 (R3) n - 1
REM
REM Run started: Wed, 30 Sep 2020 09:57:02 +0100 in /lustre/scratch/uccabz1/launch_tmp/launcher_2020-09-30-08-31-26-484607
REM CASTEP 20.1 from code version af48c487+ pr-geom-scf-spinfix Tue Jun 2 15:39:59 2020 +0100
REM Functional Perdew Burke Ernzerhof Relativity Koelling-Harmon Dispersion off
REM Cut-off 340.0000 eV Grid scale 1.7500 Gmax 16.5316 1/A FBSC none
REM MP grid 3 3 2 Offset 0.000 0.000 0.000 No. kpts 7 Spacing 0.07
REM Total runtime: 80171.1 s
REM Overall efficiency: 78.2727 %
REM
REM
REM
REM compiler GCC version 4.9.2
REM options -cpp -iprefix /lustre/shared/ucl/apps/gcc/4.9.2/bin/../lib/gcc/x86_64-unknown-linux-gnu/4.9.2/ -mtune=corei7 -march=x86-64 -g -Og
REM COMMAND_LINE
REM seed 588840451 -947042082 -1145807371 674373438 1720220140 -284271683 -416365785 -866347460 1126235046 1122509540 1899429827 968662223
REM
REM S 3|1.8|5|6|7|30:31:32(qc=5)
REM O 2|1.5|12|13|15|20:21(qc=5)
REM Li 1|1.3|8|9|10|10U:20(qc=5)
REM Fe 3|2.2|2.0|1.0|8|9|10|40:41:32(qc=5)
REM 
CELL 1.54180    7.67050    7.67050    9.48215   66.14202   66.14202   60.00000
LATT -1
SFAC Li O  S  Fe 
Li     1  0.3499630000000 -0.1514150000000 -0.6546560000000 1.0  -0.02
Li     1 -0.1514150000000  0.4561090000000 -0.6546560000000 1.0  -0.02
Li     1  0.4561090000000  0.3499630000000 -0.6546560000000 1.0  -0.02
Li     1 -0.4881150000000 -0.3537610000000 -0.3140920000000 1.0   0.04
Li     1 -0.3537610000000  0.1559690000000 -0.3140920000000 1.0   0.04
Li     1  0.1559690000000 -0.4881150000000 -0.3140920000000 1.0   0.04
O      2 -0.2886790000000  0.2441930000000  0.1948960000000 1.0   0.13
O      2  0.2441930000000 -0.1504090000000  0.1948960000000 1.0   0.13
O      2 -0.1504090000000 -0.2886790000000  0.1948960000000 1.0   0.13
O      2 -0.1280010000000 -0.1280010000000  0.3840030000000 1.0   0.04
S      3 -0.5704610000000 -0.0141660000000 -0.2780460000000 1.0   0.29
S      3 -0.0141660000000 -0.1373260000000 -0.2780460000000 1.0   0.29
S      3 -0.1373260000000 -0.5704610000000 -0.2780460000000 1.0   0.29
S      3  0.2675050000000 -0.3686080000000 -0.0057330000000 1.0   0.08
S      3 -0.3686080000000  0.1068370000000 -0.0057330000000 1.0   0.08
S      3  0.1068370000000  0.2675050000000 -0.0057330000000 1.0   0.08
S      3  0.4964670000000  0.4964670000000 -0.4894000000000 1.0   0.05
S      3  0.2157500000000  0.2157500000000  0.3527500000000 1.0   0.57
Fe     4  0.2550350000000 -0.0564680000000 -0.0399150000000 1.0   2.51
Fe     4 -0.0564680000000 -0.1586500000000 -0.0399150000000 1.0   2.51
Fe     4 -0.1586500000000  0.2550350000000 -0.0399150000000 1.0   2.51
Fe     4 -0.0204460000000  0.0739210000000  0.2256460000000 1.0   2.39
Fe     4  0.0739210000000 -0.2791200000000  0.2256460000000 1.0   2.39
Fe     4 -0.2791200000000 -0.0204460000000  0.2256460000000 1.0   2.39
END
