TITL LFSO-Li3Fe3S5O-200929-064433-5cde1a -0.0078 265.731379 -5.14797298E+003 6.20321 11.1547 12 (Pmm2) n - 1
REM
REM Run started: Tue, 29 Sep 2020 10:55:58 +0100 in /lustre/scratch/uccabz1/launch_tmp/launcher_2020-09-29-05-44-31-799919
REM CASTEP 20.1 from code version af48c487+ pr-geom-scf-spinfix Tue Jun 2 15:39:59 2020 +0100
REM Functional Perdew Burke Ernzerhof Relativity Koelling-Harmon Dispersion off
REM Cut-off 340.0000 eV Grid scale 1.7500 Gmax 16.5316 1/A FBSC none
REM MP grid 3 3 3 Offset 0.000 0.000 0.000 No. kpts 8 Spacing 0.07
REM Total runtime: 15141.1 s
REM Overall efficiency: 92.4444 %
REM
REM
REM
REM compiler GCC version 4.9.2
REM options -cpp -iprefix /lustre/shared/ucl/apps/gcc/4.9.2/bin/../lib/gcc/x86_64-unknown-linux-gnu/4.9.2/ -mtune=corei7 -march=x86-64 -g -Og
REM COMMAND_LINE
REM seed -69418051 -990332377 366201663 2072063084 613520576 -2044036805 535700373 -1051002599 -484821052 112293025 254575356 925467750
REM
REM S 3|1.8|5|6|7|30:31:32(qc=5)
REM O 2|1.5|12|13|15|20:21(qc=5)
REM Li 1|1.3|8|9|10|10U:20(qc=5)
REM Fe 3|2.2|2.0|1.0|8|9|10|40:41:32(qc=5)
REM 
CELL 1.54180    5.93998    6.78947    6.58903   90.00000   90.00000   90.00000
LATT -1
SFAC Li O  S  Fe 
Li     1 -0.1067460000000  0.3021220000000 -0.5000000000000 1.0   0.00
Li     1 -0.1067460000000 -0.3021220000000 -0.5000000000000 1.0   0.00
Li     1 -0.2487700000000  0.0000000000000  0.0000000000000 1.0   0.06
O      2  0.1542080000000  0.5000000000000  0.5000000000000 1.0   0.42
S      3 -0.4005350000000 -0.2633670000000  0.2341350000000 1.0   0.17
S      3 -0.4005350000000  0.2633670000000 -0.2341350000000 1.0   0.17
S      3 -0.4005350000000  0.2633670000000  0.2341350000000 1.0   0.17
S      3 -0.4005350000000 -0.2633670000000 -0.2341350000000 1.0   0.17
S      3  0.1445780000000  0.0000000000000 -0.5000000000000 1.0   0.43
Fe     4  0.3612430000000 -0.2818820000000 -0.5000000000000 1.0   3.52
Fe     4  0.3612430000000  0.2818820000000 -0.5000000000000 1.0   3.52
Fe     4  0.5651780000000  0.5000000000000  0.0000000000000 1.0  -2.44
END
