TITL LFSO-LiFeSO-200921-185301-ee3707 0.0044 107.171858 -3.61170394E+003 5.39976 5.62404 8 (P-1) n - 1
REM
REM Run started: Mon, 21 Sep 2020 19:48:43 +0100 in /lustre/scratch/uccabz1/launch_tmp/launcher_2020-09-21-17-53-00-103800
REM CASTEP 20.1 from code version af48c487+ pr-geom-scf-spinfix Tue Jun 2 15:39:59 2020 +0100
REM Functional Perdew Burke Ernzerhof Relativity Koelling-Harmon Dispersion off
REM Cut-off 340.0000 eV Grid scale 1.7500 Gmax 16.5316 1/A FBSC none
REM MP grid 5 3 3 Offset 0.000 0.000 0.000 No. kpts 23 Spacing 0.07
REM Total runtime: 3739.6 s
REM Overall efficiency: 94.5714 %
REM
REM
REM
REM compiler GCC version 4.9.2
REM options -cpp -iprefix /lustre/shared/ucl/apps/gcc/4.9.2/bin/../lib/gcc/x86_64-unknown-linux-gnu/4.9.2/ -mtune=corei7 -march=x86-64 -g -Og
REM COMMAND_LINE
REM seed 244998366 -2004717552 -214335586 -664267017 1362619945 -1347773024 -160863471 1765757267 -201389428 -1456896906 -237956334 1936849974
REM
REM S 3|1.8|5|6|7|30:31:32(qc=5)
REM O 2|1.5|12|13|15|20:21(qc=5)
REM Li 1|1.3|8|9|10|10U:20(qc=5)
REM Fe 3|2.2|2.0|1.0|8|9|10|40:41:32(qc=5)
REM 
CELL 1.54180    3.67860    6.13558    5.58195   71.78239   77.73932   64.03607
LATT -1
SFAC Li O  S  Fe 
Li     1 -0.1523870000000 -0.0857570000000 -0.1155300000000 1.0  -0.00
Li     1  0.1523870000000  0.0857570000000  0.1155300000000 1.0  -0.00
O      2 -0.4244080000000  0.2506970000000  0.0218360000000 1.0   0.20
O      2  0.4244080000000 -0.2506970000000 -0.0218360000000 1.0   0.20
S      3  0.0271650000000 -0.2796530000000 -0.4894410000000 1.0   0.01
S      3 -0.0271650000000  0.2796530000000  0.4894410000000 1.0   0.01
Fe     4  0.3959410000000 -0.5326910000000  0.2492140000000 1.0   2.49
Fe     4 -0.3959410000000  0.5326910000000 -0.2492140000000 1.0   2.49
END
