TITL LFSO-LiFe3S2O3-200909-162122-9eea22 0.1503 122.154315 -4.71011109E+003 3.69257 6.63544 9 (Cm) n - 1
REM
REM Run started: Thu, 10 Sep 2020 04:50:07 +0100 in /lustre/scratch/uccabz1/launch_tmp/launcher_2020-09-09-15-21-20-802170
REM CASTEP 20.1 from code version af48c487+ pr-geom-scf-spinfix Tue Jun 2 15:39:59 2020 +0100
REM Functional Perdew Burke Ernzerhof Relativity Koelling-Harmon Dispersion off
REM Cut-off 340.0000 eV Grid scale 1.7500 Gmax 16.5316 1/A FBSC none
REM MP grid 5 3 3 Offset 0.000 0.000 0.000 No. kpts 16 Spacing 0.07
REM Total runtime: 56788.2 s
REM Overall efficiency: 97.5 %
REM
REM
REM
REM compiler GCC version 4.9.2
REM options -cpp -iprefix /lustre/shared/ucl/apps/gcc/4.9.2/bin/../lib/gcc/x86_64-unknown-linux-gnu/4.9.2/ -mtune=corei7 -march=x86-64 -g -Og
REM COMMAND_LINE
REM seed -131043727 -453934591 763889880 -1313868818 1894701213 -435342072 -299558647 -548532972 -1755591876 66345293 -1411976524 -737351037
REM
REM S 3|1.8|5|6|7|30:31:32(qc=5)
REM O 2|1.5|12|13|15|20:21(qc=5)
REM Li 1|1.3|8|9|10|10U:20(qc=5)
REM Fe 3|2.2|2.0|1.0|8|9|10|40:41:32(qc=5)
REM 
CELL 1.54180    3.39317    6.01032    7.60055  113.29011  118.15341   90.00000
LATT -1
SFAC Li O  S  Fe 
Li     1 -0.8885570000000 -0.3402970000000 -0.6805940000000 1.0  -0.03
O      2 -0.1492060000000  0.3068260000000  0.0669700000000 1.0   0.10
O      2 -0.1492060000000 -0.2398560000000  0.0669700000000 1.0   0.10
O      2 -0.2159900000000 -0.2568760000000 -0.5137510000000 1.0  -0.01
S      3 -0.0991040000000  0.1055870000000 -0.3702190000000 1.0   0.08
S      3 -0.0991040000000 -0.4758060000000 -0.3702190000000 1.0   0.08
Fe     4  0.2667760000000  0.1802490000000 -0.0122970000000 1.0   2.39
Fe     4  0.2667760000000 -0.1925460000000 -0.0122970000000 1.0   2.39
Fe     4  0.5784080000000  0.4079510000000  0.8159020000000 1.0  -1.41
END
