TITL LFSO-Li2Fe4S4O-200911-213135-5ddca0 0.0509 160.053714 -5.50608849E+003 9.82323 10.1257 11 (I4/m) n - 1
REM
REM Run started: Sat, 12 Sep 2020 00:11:42 +0100 in /lustre/scratch/uccabz1/launch_tmp/launcher_2020-09-11-20-31-33-322996
REM CASTEP 20.1 from code version af48c487+ pr-geom-scf-spinfix Tue Jun 2 15:39:59 2020 +0100
REM Functional Perdew Burke Ernzerhof Relativity Koelling-Harmon Dispersion off
REM Cut-off 340.0000 eV Grid scale 1.7500 Gmax 16.5316 1/A FBSC none
REM MP grid 4 4 3 Offset 0.000 0.000 0.000 No. kpts 24 Spacing 0.07
REM Total runtime: 9703.2 s
REM Overall efficiency: 96 %
REM
REM
REM
REM compiler GCC version 4.9.2
REM options -cpp -iprefix /lustre/shared/ucl/apps/gcc/4.9.2/bin/../lib/gcc/x86_64-unknown-linux-gnu/4.9.2/ -mtune=corei7 -march=x86-64 -g -Og
REM COMMAND_LINE
REM seed 856896782 147098456 1392038423 -1376126450 870431747 1650030297 334298463 905695127 633578892 -940235495 1407182616 725751690
REM
REM S 3|1.8|5|6|7|30:31:32(qc=5)
REM O 2|1.5|12|13|15|20:21(qc=5)
REM Li 1|1.3|8|9|10|10U:20(qc=5)
REM Fe 3|2.2|2.0|1.0|8|9|10|40:41:32(qc=5)
REM 
CELL 1.54180    6.39054    6.39054    6.39054   97.00524   97.00524  139.11981
LATT -1
SFAC Li O  S  Fe 
Li     1 -0.4513030000000  0.0486970000000 -0.5000000000000 1.0  -0.02
Li     1  0.0486970000000 -0.4513030000000  0.5000000000000 1.0  -0.02
O      2  0.7991380000000  0.7991380000000  0.0000000000000 1.0   0.21
S      3  0.4521030000000  0.6189440000000  0.4738990000000 1.0   0.04
S      3  0.1450440000000 -0.0217960000000 -0.4738990000000 1.0   0.04
S      3 -0.0217960000000  0.4521030000000 -0.1668410000000 1.0   0.04
S      3  0.6189440000000  0.1450440000000  0.1668410000000 1.0   0.04
Fe     4 -0.2740460000000 -0.4156610000000 -0.2874470000000 1.0   2.37
Fe     4 -0.1282130000000  0.0134010000000  0.2874470000000 1.0   2.37
Fe     4  0.0134010000000 -0.2740460000000  0.1416150000000 1.0   2.37
Fe     4 -0.4156610000000 -0.1282130000000 -0.1416150000000 1.0   2.37
END
