TITL LFSO-LiFe3S4O-200909-090128-ca60b6 -0.0843 314.597568 -8.88562717E+003 -10.3175 10.8022 18 (R3) n - 1
REM
REM Run started: Thu, 10 Sep 2020 07:13:14 +0100 in /lustre/scratch/uccabz1/launch_tmp/launcher_2020-09-09-08-01-26-926309
REM CASTEP 20.1 from code version af48c487+ pr-geom-scf-spinfix Tue Jun 2 15:39:59 2020 +0100
REM Functional Perdew Burke Ernzerhof Relativity Koelling-Harmon Dispersion off
REM Cut-off 340.0000 eV Grid scale 1.7500 Gmax 16.5316 1/A FBSC none
REM MP grid 3 3 2 Offset 0.000 0.000 0.000 No. kpts 7 Spacing 0.07
REM Total runtime: 80116.9 s
REM Overall efficiency: 77.8462 %
REM
REM
REM
REM compiler GCC version 4.9.2
REM options -cpp -iprefix /lustre/shared/ucl/apps/gcc/4.9.2/bin/../lib/gcc/x86_64-unknown-linux-gnu/4.9.2/ -mtune=corei7 -march=x86-64 -g -Og
REM COMMAND_LINE
REM seed 668477872 -1711459653 -500496736 -520415920 2080681471 368084973 1264228390 -522579646 146849243 -555330694 2108239555 1782312102
REM
REM S 3|1.8|5|6|7|30:31:32(qc=5)
REM O 2|1.5|12|13|15|20:21(qc=5)
REM Li 1|1.3|8|9|10|10U:20(qc=5)
REM Fe 3|2.2|2.0|1.0|8|9|10|40:41:32(qc=5)
REM 
CELL 1.54180    6.30888    6.30888    9.82683   71.27641   71.27641   60.00000
LATT -1
SFAC Li O  S  Fe 
Li     1 -0.1038110000000 -0.1038110000000  0.3114330000000 1.0  -0.07
Li     1  0.0379050000000  0.0379050000000 -0.1137160000000 1.0   0.03
O      2  0.1055650000000  0.1055650000000 -0.3166960000000 1.0  -0.24
O      2 -0.0326160000000 -0.0326160000000  0.0978480000000 1.0   0.01
S      3  0.1626230000000 -0.3997730000000  0.0719290000000 1.0   0.01
S      3  0.1652200000000  0.1626230000000  0.0719290000000 1.0   0.01
S      3 -0.3997730000000  0.1652200000000  0.0719290000000 1.0   0.01
S      3 -0.3046280000000 -0.3583380000000  0.4910750000000 1.0  -0.20
S      3  0.1718910000000 -0.3046280000000  0.4910750000000 1.0  -0.20
S      3 -0.3583380000000  0.1718910000000  0.4910750000000 1.0  -0.20
S      3  0.4186140000000  0.4186140000000 -0.2558410000000 1.0  -0.00
S      3 -0.2893870000000 -0.2893870000000 -0.1318400000000 1.0  -0.07
Fe     4 -0.0869960000000 -0.0394700000000 -0.3569090000000 1.0  -3.14
Fe     4 -0.5166260000000 -0.0869960000000 -0.3569090000000 1.0  -3.14
Fe     4 -0.0394700000000 -0.5166260000000 -0.3569090000000 1.0  -3.14
Fe     4  0.0935110000000 -0.5042330000000 -0.0904250000000 1.0  -0.00
Fe     4  0.5011470000000  0.0935110000000 -0.0904250000000 1.0  -0.00
Fe     4 -0.5042330000000  0.5011470000000 -0.0904250000000 1.0  -0.00
END
