TITL LFSO-Li2Fe2SO3-200913-094801-152606 -0.0017 285.630200 -7.48736031E+003 -5.97497 6.86662 16 (Pm) n - 1
REM
REM Run started: Sun, 13 Sep 2020 17:29:34 +0100 in /lustre/scratch/uccabz1/launch_tmp/launcher_2020-09-13-08-47-58-925296
REM CASTEP 20.1 from code version af48c487+ pr-geom-scf-spinfix Tue Jun 2 15:39:59 2020 +0100
REM Functional Perdew Burke Ernzerhof Relativity Koelling-Harmon Dispersion off
REM Cut-off 340.0000 eV Grid scale 1.7500 Gmax 16.5316 1/A FBSC none
REM MP grid 2 3 3 Offset 0.000 0.000 0.000 No. kpts 5 Spacing 0.07
REM Total runtime: 29289.3 s
REM Overall efficiency: 73.25 %
REM
REM
REM
REM compiler GCC version 4.9.2
REM options -cpp -iprefix /lustre/shared/ucl/apps/gcc/4.9.2/bin/../lib/gcc/x86_64-unknown-linux-gnu/4.9.2/ -mtune=corei7 -march=x86-64 -g -Og
REM COMMAND_LINE
REM seed -1195643320 91469568 255405602 -853663801 -358542339 1257319313 1808032911 1582690587 1947680655 1830456384 1474698410 -1101265703
REM
REM S 3|1.8|5|6|7|30:31:32(qc=5)
REM O 2|1.5|12|13|15|20:21(qc=5)
REM Li 1|1.3|8|9|10|10U:20(qc=5)
REM Fe 3|2.2|2.0|1.0|8|9|10|40:41:32(qc=5)
REM 
CELL 1.54180    9.67822    5.79480    6.14850  124.07291   90.00000   90.00000
LATT -1
SFAC Li O  S  Fe 
Li     1  0.2810230000000 -0.2637940000000  0.2156770000000 1.0   0.02
Li     1 -0.2810230000000 -0.2637940000000  0.2156770000000 1.0   0.02
Li     1 -0.2016890000000  0.2928470000000  0.1884640000000 1.0  -0.00
Li     1  0.2016890000000  0.2928470000000  0.1884640000000 1.0  -0.00
O      2 -0.1613210000000  0.0189420000000  0.2627370000000 1.0  -0.15
O      2  0.1613210000000  0.0189420000000  0.2627370000000 1.0  -0.15
O      2 -0.1672960000000  0.4490470000000 -0.0426280000000 1.0  -0.08
O      2  0.1672960000000  0.4490470000000 -0.0426280000000 1.0  -0.08
O      2 -0.2908170000000 -0.3776350000000  0.4421470000000 1.0  -0.01
O      2  0.2908170000000 -0.3776350000000  0.4421470000000 1.0  -0.01
S      3  0.2079580000000 -0.1428220000000 -0.2982490000000 1.0  -0.05
S      3 -0.2079580000000 -0.1428220000000 -0.2982490000000 1.0  -0.05
Fe     4  0.1286150000000  0.1957690000000 -0.3863340000000 1.0  -2.86
Fe     4 -0.1286150000000  0.1957690000000 -0.3863340000000 1.0  -2.86
Fe     4  0.1004080000000 -0.2840150000000 -0.0902460000000 1.0   0.15
Fe     4 -0.1004080000000 -0.2840150000000 -0.0902460000000 1.0   0.15
END
