TITL LFSO-LiFe3S3O2-200909-142514-cc0102 2.0721 345.236152 -9.15014978E+003 -6.24049 8.89685 18 (P2) n - 1
REM
REM Run started: Thu, 10 Sep 2020 12:33:42 +0100 in /lustre/scratch/uccabz1/launch_tmp/launcher_2020-09-10-10-41-25-018993
REM CASTEP 20.1 from code version af48c487+ pr-geom-scf-spinfix Tue Jun 2 15:39:59 2020 +0100
REM Functional Perdew Burke Ernzerhof Relativity Koelling-Harmon Dispersion off
REM Cut-off 340.0000 eV Grid scale 1.7500 Gmax 16.5316 1/A FBSC none
REM MP grid 5 2 2 Offset 0.000 0.000 0.000 No. kpts 5 Spacing 0.07
REM Total runtime: 67907.5 s
REM Overall efficiency: 79.3 %
REM
REM
REM
REM compiler GCC version 4.9.2
REM options -cpp -iprefix /lustre/shared/ucl/apps/gcc/4.9.2/bin/../lib/gcc/x86_64-unknown-linux-gnu/4.9.2/ -mtune=corei7 -march=x86-64 -g -Og
REM COMMAND_LINE
REM seed -1229472965 1331214271 2133345232 800030963 -1737804522 -701605447 -1952685727 176932760 -206847749 -1365947828 -2018787470 -1967474538
REM
REM S 3|1.8|5|6|7|30:31:32(qc=5)
REM O 2|1.5|12|13|15|20:21(qc=5)
REM Li 1|1.3|8|9|10|10U:20(qc=5)
REM Fe 3|2.2|2.0|1.0|8|9|10|40:41:32(qc=5)
REM 
CELL 1.54180    2.92678   10.97634   10.74725   90.00000   90.00000   90.65363
LATT -1
SFAC Li O  S  Fe 
Li     1  0.2285780000000  0.1762060000000 -0.0825570000000 1.0   0.07
Li     1 -0.2285780000000 -0.1762060000000 -0.0825570000000 1.0   0.07
O      2  0.2435820000000 -0.3848280000000 -0.5975230000000 1.0   0.09
O      2 -0.2435820000000  0.3848280000000 -0.5975230000000 1.0   0.09
O      2  0.2407040000000  0.3562470000000 -0.1329760000000 1.0  -0.23
O      2 -0.2407040000000 -0.3562470000000 -0.1329760000000 1.0  -0.23
S      3 -0.2374480000000 -0.2018250000000 -0.3186050000000 1.0  -0.08
S      3  0.2374480000000  0.2018250000000 -0.3186050000000 1.0  -0.08
S      3  0.2455370000000 -0.2745710000000  0.1091630000000 1.0  -0.01
S      3 -0.2455370000000  0.2745710000000  0.1091630000000 1.0  -0.01
S      3  0.2527930000000  0.1275860000000  0.3229060000000 1.0   0.01
S      3 -0.2527930000000 -0.1275860000000  0.3229060000000 1.0   0.01
Fe     4 -0.2498880000000  0.0852290000000  0.1676190000000 1.0  -0.96
Fe     4  0.2498880000000 -0.0852290000000  0.1676190000000 1.0  -0.96
Fe     4 -0.2605420000000  0.3205170000000 -0.2180400000000 1.0  -2.42
Fe     4  0.2605420000000 -0.3205170000000 -0.2180400000000 1.0  -2.42
Fe     4 -0.2418340000000  0.2766440000000  0.3037310000000 1.0   0.40
Fe     4  0.2418340000000 -0.2766440000000  0.3037310000000 1.0   0.40
END
