TITL LFSO-Li2FeSO-200912-033754-6013d3 -0.0277 141.840403 -4.01021535E+003 4.00251 4.46992 10 (Pc) n - 1
REM
REM Run started: Sat, 12 Sep 2020 05:23:51 +0100 in /lustre/scratch/uccabz1/launch_tmp/launcher_2020-09-12-02-37-52-642407
REM CASTEP 20.1 from code version af48c487+ pr-geom-scf-spinfix Tue Jun 2 15:39:59 2020 +0100
REM Functional Perdew Burke Ernzerhof Relativity Koelling-Harmon Dispersion off
REM Cut-off 340.0000 eV Grid scale 1.7500 Gmax 16.5316 1/A FBSC none
REM MP grid 5 3 2 Offset 0.000 0.000 0.000 No. kpts 8 Spacing 0.07
REM Total runtime: 7122.34 s
REM Overall efficiency: 95.2308 %
REM
REM
REM
REM compiler GCC version 4.9.2
REM options -cpp -iprefix /lustre/shared/ucl/apps/gcc/4.9.2/bin/../lib/gcc/x86_64-unknown-linux-gnu/4.9.2/ -mtune=corei7 -march=x86-64 -g -Og
REM COMMAND_LINE
REM seed -765311219 631255904 -1735367289 927777489 -368736916 -2143278004 -719700480 1199103788 -369110279 1268359635 -1498663479 -2057796260
REM
REM S 3|1.8|5|6|7|30:31:32(qc=5)
REM O 2|1.5|12|13|15|20:21(qc=5)
REM Li 1|1.3|8|9|10|10U:20(qc=5)
REM Fe 3|2.2|2.0|1.0|8|9|10|40:41:32(qc=5)
REM 
CELL 1.54180    2.99342    6.03629    8.17058   90.00000   90.00000   73.89375
LATT -1
SFAC Li O  S  Fe 
Li     1 -0.5349680000000  0.4169730000000 -0.4109210000000 1.0  -0.06
Li     1 -0.5349680000000 -0.0830270000000  0.4109210000000 1.0  -0.06
Li     1 -0.0344180000000 -0.0644200000000  0.1102860000000 1.0  -0.03
Li     1 -0.0344180000000 -0.5644200000000 -0.1102860000000 1.0  -0.03
O      2 -0.4259270000000  0.2594650000000 -0.2028420000000 1.0   0.06
O      2 -0.4259270000000 -0.2405350000000  0.2028420000000 1.0   0.06
S      3 -0.1604280000000 -0.2198560000000 -0.3110060000000 1.0  -0.01
S      3 -0.1604280000000  0.2801440000000  0.3110060000000 1.0  -0.01
Fe     4  0.1954400000000  0.5401890000000  0.2442840000000 1.0   2.03
Fe     4  0.1954400000000  0.0401890000000 -0.2442840000000 1.0   2.03
END
