TITL LFSO-Li2Fe4S3O2-200912-043840-e766f4 0.1292 362.564910 -1.12799018E+004 8.45605 16.1053 22 (R3) n - 1
REM
REM Run started: Mon, 14 Sep 2020 00:55:01 +0100 in /lustre/scratch/uccabz1/launch_tmp/launcher_2020-09-13-23-22-24-622921
REM CASTEP 20.1 from code version af48c487+ pr-geom-scf-spinfix Tue Jun 2 15:39:59 2020 +0100
REM Functional Perdew Burke Ernzerhof Relativity Koelling-Harmon Dispersion off
REM Cut-off 340.0000 eV Grid scale 1.7500 Gmax 16.5316 1/A FBSC none
REM MP grid 3 3 3 Offset 0.000 0.000 0.000 No. kpts 6 Spacing 0.07
REM Total runtime: 132645 s
REM Overall efficiency: 95.875 %
REM
REM
REM
REM compiler GCC version 4.9.2
REM options -cpp -iprefix /lustre/shared/ucl/apps/gcc/4.9.2/bin/../lib/gcc/x86_64-unknown-linux-gnu/4.9.2/ -mtune=corei7 -march=x86-64 -g -Og
REM COMMAND_LINE
REM seed 1825168840 -1508755506 2012714938 588777631 126098743 1833016796 -454467510 1826950886 -1725097412 1232413046 478497452 1921605176
REM
REM S 3|1.8|5|6|7|30:31:32(qc=5)
REM O 2|1.5|12|13|15|20:21(qc=5)
REM Li 1|1.3|8|9|10|10U:20(qc=5)
REM Fe 3|2.2|2.0|1.0|8|9|10|40:41:32(qc=5)
REM 
CELL 1.54180    7.13065    7.13065    7.13065   89.90869   89.90869   89.90869
LATT -1
SFAC Li O  S  Fe 
Li     1 -0.4241340000000  0.4657130000000  0.1950310000000 1.0  -0.01
Li     1  0.4657130000000  0.1950310000000 -0.4241340000000 1.0  -0.01
Li     1  0.1950310000000 -0.4241340000000  0.4657130000000 1.0  -0.01
Li     1  0.2431520000000  0.2431520000000  0.2431520000000 1.0  -0.05
O      2 -0.0410740000000 -0.0671140000000 -0.3640050000000 1.0   0.03
O      2 -0.0671140000000 -0.3640050000000 -0.0410740000000 1.0   0.03
O      2 -0.3640050000000 -0.0410740000000 -0.0671140000000 1.0   0.03
O      2  0.4073840000000  0.4073840000000  0.4073840000000 1.0  -0.24
S      3 -0.3192630000000  0.1263490000000  0.3148770000000 1.0   0.08
S      3  0.1263490000000  0.3148770000000 -0.3192630000000 1.0   0.08
S      3  0.3148770000000 -0.3192630000000  0.1263490000000 1.0   0.08
S      3  0.3802760000000 -0.1948770000000 -0.3720430000000 1.0  -0.01
S      3 -0.1948770000000 -0.3720430000000  0.3802760000000 1.0  -0.01
S      3 -0.3720430000000  0.3802760000000 -0.1948770000000 1.0  -0.01
Fe     4 -0.1604650000000  0.1192140000000  0.0544760000000 1.0   3.04
Fe     4  0.1192140000000  0.0544760000000 -0.1604650000000 1.0   3.04
Fe     4  0.0544760000000 -0.1604650000000  0.1192140000000 1.0   3.04
Fe     4 -0.1454700000000 -0.0854170000000  0.4162720000000 1.0   0.01
Fe     4 -0.0854170000000  0.4162720000000 -0.1454700000000 1.0   0.01
Fe     4  0.4162720000000 -0.1454700000000 -0.0854170000000 1.0   0.01
Fe     4 -0.1560320000000 -0.1560320000000 -0.1560320000000 1.0   2.07
Fe     4 -0.4369430000000 -0.4369430000000 -0.4369430000000 1.0  -2.79
END
