TITL LFSO-Li4FeS2O-200910-105703-f95488 -1.0723 640.333530 -8.12240456E+003 -12.0000 12.1859 24 (Cm) n - 1
REM
REM Run started: Sat, 12 Sep 2020 12:46:34 +0100 in /lustre/scratch/uccabz1/launch_tmp/launcher_2020-09-12-09-53-53-232113
REM CASTEP 20.1 from code version af48c487+ pr-geom-scf-spinfix Tue Jun 2 15:39:59 2020 +0100
REM Functional Perdew Burke Ernzerhof Relativity Koelling-Harmon Dispersion off
REM Cut-off 340.0000 eV Grid scale 1.7500 Gmax 16.5316 1/A FBSC none
REM MP grid 3 3 2 Offset 0.000 0.000 0.000 No. kpts 6 Spacing 0.07
REM Total runtime: 176691 s
REM Overall efficiency: 98.8462 %
REM
REM
REM
REM compiler GCC version 4.9.2
REM options -cpp -iprefix /lustre/shared/ucl/apps/gcc/4.9.2/bin/../lib/gcc/x86_64-unknown-linux-gnu/4.9.2/ -mtune=corei7 -march=x86-64 -g -Og
REM COMMAND_LINE
REM seed 1497648018 -1258309158 -1524051760 1154586116 902820812 -1562254680 430987576 1461157367 -1630797828 -145686095 -1603596232 1568706150
REM
REM S 3|1.8|5|6|7|30:31:32(qc=5)
REM O 2|1.5|12|13|15|20:21(qc=5)
REM Li 1|1.3|8|9|10|10U:20(qc=5)
REM Fe 3|2.2|2.0|1.0|8|9|10|40:41:32(qc=5)
REM 
CELL 1.54180    7.66562    7.66562   13.32816   95.26077   95.26077  123.54894
LATT -1
SFAC Li O  S  Fe 
Li     1 -0.2262550000000  0.2341360000000 -0.2266570000000 1.0  -0.00
Li     1  0.2341360000000 -0.2262550000000 -0.2266570000000 1.0  -0.00
Li     1 -0.4212310000000 -0.0223460000000 -0.0763770000000 1.0  -0.04
Li     1 -0.0223460000000 -0.4212310000000 -0.0763770000000 1.0  -0.04
Li     1 -0.6015090000000 -0.1039550000000  0.4696820000000 1.0   0.05
Li     1 -0.1039550000000 -0.6015090000000  0.4696820000000 1.0   0.05
Li     1 -0.1954460000000 -0.4464820000000 -0.3584780000000 1.0   0.01
Li     1 -0.4464820000000 -0.1954460000000 -0.3584780000000 1.0   0.01
Li     1  0.3169290000000 -0.3242610000000  0.1269390000000 1.0   0.03
Li     1 -0.3242610000000  0.3169290000000  0.1269390000000 1.0   0.03
Li     1  0.4313920000000  0.0416950000000 -0.3301760000000 1.0  -0.00
Li     1  0.0416950000000  0.4313920000000 -0.3301760000000 1.0  -0.00
O      2 -0.0109200000000  0.5227800000000 -0.2057450000000 1.0  -0.01
O      2  0.5227800000000 -0.0109200000000 -0.2057450000000 1.0  -0.01
O      2  0.6196700000000  0.6196700000000 -0.4307870000000 1.0  -0.41
S      3 -0.2857860000000  0.1562190000000 -0.4242610000000 1.0  -0.04
S      3  0.1562190000000 -0.2857860000000 -0.4242610000000 1.0  -0.04
S      3 -0.0093730000000 -0.3757500000000  0.1015780000000 1.0  -0.27
S      3 -0.3757500000000 -0.0093730000000  0.1015780000000 1.0  -0.27
S      3  0.3990330000000 -0.2944910000000  0.3193920000000 1.0  -0.17
S      3 -0.2944910000000  0.3990330000000  0.3193920000000 1.0  -0.17
Fe     4  0.0541410000000 -0.3916810000000  0.2686780000000 1.0  -3.51
Fe     4 -0.3916810000000  0.0541410000000  0.2686780000000 1.0  -3.51
Fe     4 -0.4092490000000 -0.4092490000000  0.4327040000000 1.0  -3.70
END
