TITL LFSO-Li2Fe3S3O-200912-160240-5e8aaf 0.0166 187.485036 -4.33866854E+003 -8.59213 9.08586 9 (Fmm2) n - 1
REM
REM Run started: Sat, 12 Sep 2020 17:39:19 +0100 in /lustre/scratch/uccabz1/launch_tmp/launcher_2020-09-12-15-02-38-673524
REM CASTEP 20.1 from code version af48c487+ pr-geom-scf-spinfix Tue Jun 2 15:39:59 2020 +0100
REM Functional Perdew Burke Ernzerhof Relativity Koelling-Harmon Dispersion off
REM Cut-off 340.0000 eV Grid scale 1.7500 Gmax 16.5316 1/A FBSC none
REM MP grid 3 3 3 Offset 0.000 0.000 0.000 No. kpts 8 Spacing 0.07
REM Total runtime: 7049.45 s
REM Overall efficiency: 96.1667 %
REM
REM
REM
REM compiler GCC version 4.9.2
REM options -cpp -iprefix /lustre/shared/ucl/apps/gcc/4.9.2/bin/../lib/gcc/x86_64-unknown-linux-gnu/4.9.2/ -mtune=corei7 -march=x86-64 -g -Og
REM COMMAND_LINE
REM seed 867891281 1097103251 -1005517148 -898863810 -1735768324 -1894363514 -1028550402 2108156465 -62124795 -174517504 -671871872 -1488823709
REM
REM S 3|1.8|5|6|7|30:31:32(qc=5)
REM O 2|1.5|12|13|15|20:21(qc=5)
REM Li 1|1.3|8|9|10|10U:20(qc=5)
REM Fe 3|2.2|2.0|1.0|8|9|10|40:41:32(qc=5)
REM 
CELL 1.54180    6.30173    6.30173    6.77186  122.60816  122.60816   80.89828
LATT -1
SFAC Li O  S  Fe 
Li     1  0.1979030000000 -0.3020970000000  0.3958060000000 1.0   0.16
Li     1 -0.3020970000000  0.1979030000000  0.3958060000000 1.0   0.16
O      2  0.0294960000000  0.0294960000000  0.0589920000000 1.0  -0.28
S      3 -0.4716500000000 -0.0195140000000 -0.4911640000000 1.0  -0.13
S      3 -0.0195140000000 -0.4716500000000 -0.4911640000000 1.0  -0.13
S      3  0.4612980000000  0.4612980000000 -0.0774040000000 1.0  -0.04
Fe     4  0.2465100000000 -0.2107420000000  0.0357680000000 1.0  -3.04
Fe     4 -0.2107420000000  0.2465100000000  0.0357680000000 1.0  -3.04
Fe     4  0.2289730000000  0.2289730000000  0.4579460000000 1.0  -2.25
END
