TITL LFSO-LiFeSO-200909-025024-3056c0 -0.0217 270.490921 -7.22104971E+003 -0.332296E-05 0.605988E-04 16 (I41) n - 1
REM
REM Run started: Wed, 09 Sep 2020 04:44:05 +0100 in /lustre/scratch/uccabz1/launch_tmp/launcher_2020-09-09-01-50-22-737675
REM CASTEP 20.1 from code version af48c487+ pr-geom-scf-spinfix Tue Jun 2 15:39:59 2020 +0100
REM Functional Perdew Burke Ernzerhof Relativity Koelling-Harmon Dispersion off
REM Cut-off 340.0000 eV Grid scale 1.7500 Gmax 16.5316 1/A FBSC none
REM MP grid 3 3 3 Offset 0.000 0.000 0.000 No. kpts 6 Spacing 0.07
REM Total runtime: 7445.05 s
REM Overall efficiency: 97 %
REM
REM
REM
REM compiler GCC version 4.9.2
REM options -cpp -iprefix /lustre/shared/ucl/apps/gcc/4.9.2/bin/../lib/gcc/x86_64-unknown-linux-gnu/4.9.2/ -mtune=corei7 -march=x86-64 -g -Og
REM COMMAND_LINE
REM seed -452668480 356129930 -875294282 1287813285 -776841789 -297580401 466053940 -589044727 875434177 -565011943 -850964220 596626129
REM
REM S 3|1.8|5|6|7|30:31:32(qc=5)
REM O 2|1.5|12|13|15|20:21(qc=5)
REM Li 1|1.3|8|9|10|10U:20(qc=5)
REM Fe 3|2.2|2.0|1.0|8|9|10|40:41:32(qc=5)
REM 
CELL 1.54180    6.84514    6.84514    7.53348  117.02082  117.02082   90.00000
LATT -1
SFAC Li O  S  Fe 
Li     1  0.3029620000000  0.2981990000000  0.0708170000000 1.0
Li     1 -0.2321460000000 -0.2273830000000  0.0708170000000 1.0
Li     1  0.0226170000000  0.0529620000000 -0.4291830000000 1.0
Li     1  0.5481990000000 -0.4821460000000 -0.4291830000000 1.0
O      2  0.3143300000000  0.2607580000000  0.3051460000000 1.0
O      2 -0.0091840000000  0.0443880000000  0.3051460000000 1.0
O      2  0.2943880000000  0.0643300000000 -0.1948540000000 1.0
O      2  0.5107580000000 -0.2591840000000 -0.1948540000000 1.0
S      3 -0.0507360000000 -0.4091940000000  0.4042690000000 1.0
S      3  0.4550050000000 -0.1865370000000  0.4042690000000 1.0
S      3  0.0634630000000 -0.3007360000000 -0.0957310000000 1.0
S      3 -0.1591940000000  0.2050050000000 -0.0957310000000 1.0
Fe     4  0.2260550000000 -0.2262540000000 -0.2427080000000 1.0
Fe     4 -0.4687640000000 -0.0164550000000 -0.2427080000000 1.0
Fe     4  0.2335450000000 -0.0239450000000  0.2572920000000 1.0
Fe     4  0.0237460000000  0.2812360000000  0.2572920000000 1.0
END
