TITL LFSO-Li5FeS2O2-200920-235337-856a8a -0.0415 214.162840 -3.33324860E+003 2.79156 3.37853 10 (P3) n - 1
REM
REM Run started: Mon, 21 Sep 2020 07:09:24 +0100 in /lustre/scratch/uccabz1/launch_tmp/launcher_2020-09-20-22-53-36-002250
REM CASTEP 20.1 from code version af48c487+ pr-geom-scf-spinfix Tue Jun 2 15:39:59 2020 +0100
REM Functional Perdew Burke Ernzerhof Relativity Koelling-Harmon Dispersion off
REM Cut-off 340.0000 eV Grid scale 1.7500 Gmax 16.5316 1/A FBSC none
REM MP grid 5 5 1 Offset 0.000 0.000 0.000 No. kpts 5 Spacing 0.07
REM Total runtime: 28285.4 s
REM Overall efficiency: 83.8333 %
REM
REM
REM
REM compiler GCC version 4.9.2
REM options -cpp -iprefix /lustre/shared/ucl/apps/gcc/4.9.2/bin/../lib/gcc/x86_64-unknown-linux-gnu/4.9.2/ -mtune=corei7 -march=x86-64 -g -Og
REM COMMAND_LINE
REM seed -1681375844 315263558 -42242847 -319521609 -820055637 1810625408 1067550561 707289310 -894023102 740048938 646063231 2086394904
REM
REM S 3|1.8|5|6|7|30:31:32(qc=5)
REM O 2|1.5|12|13|15|20:21(qc=5)
REM Li 1|1.3|8|9|10|10U:20(qc=5)
REM Fe 3|2.2|2.0|1.0|8|9|10|40:41:32(qc=5)
REM 
CELL 1.54180    3.91141    3.91141   16.16394   90.00000   90.00000  120.00000
LATT -1
SFAC Li O  S  Fe 
Li     1 -0.3345450000000 -0.3396070000000  0.3170170000000 1.0  -0.10
Li     1 -0.0050620000000  0.3345450000000  0.3170170000000 1.0  -0.10
Li     1  0.3396070000000  0.0050620000000  0.3170170000000 1.0  -0.10
Li     1 -0.0000000000000  0.0000000000000  0.4922220000000 1.0  -0.04
Li     1  0.3333330000000 -0.3333330000000 -0.3757090000000 1.0  -0.02
O      2 -0.0000000000000  0.0000000000000 -0.0987080000000 1.0  -0.00
O      2 -0.0000000000000  0.0000000000000 -0.4011460000000 1.0   0.46
S      3 -0.3333330000000  0.3333330000000  0.1958020000000 1.0   0.07
S      3 -0.3333330000000  0.3333330000000 -0.0789410000000 1.0  -0.00
Fe     4  0.3333330000000 -0.3333330000000  0.1877170000000 1.0   2.60
END
