TITL LFSO-Li6FeSO3-200909-215016-ca6464 -0.0218 158.375524 -3.68047409E+003 4.00000 4.23400 11 (C2) n - 1
REM
REM Run started: Wed, 09 Sep 2020 22:52:55 +0100 in /lustre/scratch/uccabz1/launch_tmp/launcher_2020-09-09-20-50-14-812703
REM CASTEP 20.1 from code version af48c487+ pr-geom-scf-spinfix Tue Jun 2 15:39:59 2020 +0100
REM Functional Perdew Burke Ernzerhof Relativity Koelling-Harmon Dispersion off
REM Cut-off 340.0000 eV Grid scale 1.7500 Gmax 16.5316 1/A FBSC none
REM MP grid 4 3 3 Offset 0.000 0.000 0.000 No. kpts 12 Spacing 0.07
REM Total runtime: 4565.65 s
REM Overall efficiency: 95.4286 %
REM
REM
REM
REM compiler GCC version 4.9.2
REM options -cpp -iprefix /lustre/shared/ucl/apps/gcc/4.9.2/bin/../lib/gcc/x86_64-unknown-linux-gnu/4.9.2/ -mtune=corei7 -march=x86-64 -g -Og
REM COMMAND_LINE
REM seed -1300870363 504592789 -2052220274 488726957 418048995 -129640377 -893466562 1626674331 -1330285153 -857096814 -815315073 -953967253
REM
REM S 3|1.8|5|6|7|30:31:32(qc=5)
REM O 2|1.5|12|13|15|20:21(qc=5)
REM Li 1|1.3|8|9|10|10U:20(qc=5)
REM Fe 3|2.2|2.0|1.0|8|9|10|40:41:32(qc=5)
REM 
CELL 1.54180    5.37936    6.43955    6.43955  102.51292  115.43918  115.43918
LATT -1
SFAC Li O  S  Fe 
Li     1  0.4984620000000  0.2399990000000  0.3051470000000 1.0  -0.02
Li     1 -0.4984620000000 -0.3051470000000 -0.2399990000000 1.0  -0.02
Li     1  0.2961940000000  0.2534780000000 -0.2535630000000 1.0  -0.01
Li     1 -0.2961940000000  0.2535630000000 -0.2534780000000 1.0  -0.01
Li     1 -0.0190290000000 -0.2941200000000 -0.2290010000000 1.0  -0.02
Li     1  0.0190290000000  0.2290010000000  0.2941200000000 1.0  -0.02
O      2  0.2571440000000  0.0811710000000  0.4472420000000 1.0   0.19
O      2 -0.2571440000000 -0.4472420000000 -0.0811710000000 1.0   0.19
O      2  0.0000000000000  0.5111020000000 -0.5111020000000 1.0   0.11
S      3  0.0000000000000  0.0952230000000 -0.0952230000000 1.0   0.00
Fe     4  0.0000000000000 -0.2903000000000  0.2903000000000 1.0   3.59
END
