TITL LFSO-Li6FeS3O-200910-011015-f75f79 0.2398 341.262214 -6.82042971E+003 4.00417 4.83441 22 (P2) n - 1
REM
REM Run started: Thu, 10 Sep 2020 09:00:28 +0100 in /lustre/scratch/uccabz1/launch_tmp/launcher_2020-09-10-07-44-10-190564
REM CASTEP 20.1 from code version af48c487+ pr-geom-scf-spinfix Tue Jun 2 15:39:59 2020 +0100
REM Functional Perdew Burke Ernzerhof Relativity Koelling-Harmon Dispersion off
REM Cut-off 340.0000 eV Grid scale 1.7500 Gmax 16.5316 1/A FBSC none
REM MP grid 4 2 2 Offset 0.000 0.000 0.000 No. kpts 4 Spacing 0.07
REM Total runtime: 26973.2 s
REM Overall efficiency: 97.5 %
REM
REM
REM
REM compiler GCC version 4.9.2
REM options -cpp -iprefix /lustre/shared/ucl/apps/gcc/4.9.2/bin/../lib/gcc/x86_64-unknown-linux-gnu/4.9.2/ -mtune=corei7 -march=x86-64 -g -Og
REM COMMAND_LINE
REM seed -389971631 1889186114 2096070406 962470873 1799873025 -739637927 -2129946008 -115992333 1010846696 249200001 -35165698 1786969688
REM
REM S 3|1.8|5|6|7|30:31:32(qc=5)
REM O 2|1.5|12|13|15|20:21(qc=5)
REM Li 1|1.3|8|9|10|10U:20(qc=5)
REM Fe 3|2.2|2.0|1.0|8|9|10|40:41:32(qc=5)
REM 
CELL 1.54180    3.78458    7.73011   11.67729   92.63069   90.00000   90.00000
LATT -1
SFAC Li O  S  Fe 
Li     1 -0.4315280000000  0.4646680000000 -0.2431860000000 1.0   0.01
Li     1 -0.4315280000000 -0.4646680000000  0.2431860000000 1.0   0.01
Li     1  0.6491170000000  0.1954670000000  0.5008760000000 1.0  -0.14
Li     1  0.6491170000000 -0.1954670000000 -0.5008760000000 1.0  -0.14
Li     1  0.1518340000000  0.2179840000000 -0.2922260000000 1.0  -0.03
Li     1  0.1518340000000 -0.2179840000000  0.2922260000000 1.0  -0.03
Li     1  0.0400640000000  0.4172630000000  0.1163160000000 1.0   0.01
Li     1  0.0400640000000 -0.4172630000000 -0.1163160000000 1.0   0.01
Li     1 -0.2646750000000  0.0869400000000 -0.1149100000000 1.0  -0.00
Li     1 -0.2646750000000 -0.0869400000000  0.1149100000000 1.0  -0.00
Li     1  0.1827730000000 -0.1341480000000 -0.2887670000000 1.0  -0.03
Li     1  0.1827730000000  0.1341480000000  0.2887670000000 1.0  -0.03
O      2  0.0670890000000  0.4618130000000 -0.2730440000000 1.0   0.02
O      2  0.0670890000000 -0.4618130000000  0.2730440000000 1.0   0.02
S      3 -0.4907860000000 -0.2175980000000 -0.0950750000000 1.0  -0.00
S      3 -0.4907860000000  0.2175980000000  0.0950750000000 1.0  -0.00
S      3  0.2779390000000  0.2850640000000 -0.0666990000000 1.0  -0.00
S      3  0.2779390000000 -0.2850640000000  0.0666990000000 1.0  -0.00
S      3 -0.3262120000000 -0.0344290000000  0.3295590000000 1.0  -0.00
S      3 -0.3262120000000  0.0344290000000 -0.3295590000000 1.0  -0.00
Fe     4  0.0831180000000 -0.4560470000000 -0.4159450000000 1.0   2.17
Fe     4  0.0831180000000  0.4560470000000  0.4159450000000 1.0   2.17
END
