TITL LFSO-Li3Fe3SO5-200927-063605-9b868e 0.0635 517.140045 -1.13647073E+004 -16.5106 17.5140 24 (Imm2) n - 1
REM
REM Run started: Mon, 28 Sep 2020 19:11:21 +0100 in /lustre/scratch/uccabz1/launch_tmp/launcher_2020-09-28-13-05-05-625324
REM CASTEP 20.1 from code version af48c487+ pr-geom-scf-spinfix Tue Jun 2 15:39:59 2020 +0100
REM Functional Perdew Burke Ernzerhof Relativity Koelling-Harmon Dispersion off
REM Cut-off 340.0000 eV Grid scale 1.7500 Gmax 16.5316 1/A FBSC none
REM MP grid 3 2 3 Offset 0.000 0.000 0.000 No. kpts 6 Spacing 0.07
REM Total runtime: 80101.1 s
REM Overall efficiency: 98.5455 %
REM
REM
REM
REM compiler GCC version 4.9.2
REM options -cpp -iprefix /lustre/shared/ucl/apps/gcc/4.9.2/bin/../lib/gcc/x86_64-unknown-linux-gnu/4.9.2/ -mtune=corei7 -march=x86-64 -g -Og
REM COMMAND_LINE
REM seed 795501576 -69839051 1593090916 -441700141 -648979728 967898510 305619906 605568603 -819319684 -490668129 2049692066 -1053316041
REM
REM S 3|1.8|5|6|7|30:31:32(qc=5)
REM O 2|1.5|12|13|15|20:21(qc=5)
REM Li 1|1.3|8|9|10|10U:20(qc=5)
REM Fe 3|2.2|2.0|1.0|8|9|10|40:41:32(qc=5)
REM 
CELL 1.54180    5.76051   12.85090    9.91883  130.37617  106.88086   90.00000
LATT -1
SFAC Li O  S  Fe 
Li     1 -0.4468280000000 -0.4761480000000 -0.4011800000000 1.0  -0.01
Li     1 -0.0456480000000  0.4761480000000  0.4011800000000 1.0  -0.01
Li     1 -0.4468280000000  0.0749680000000 -0.4011800000000 1.0  -0.01
Li     1 -0.0456480000000 -0.0749680000000  0.4011800000000 1.0  -0.01
Li     1 -0.2242970000000  0.3304170000000 -0.3391650000000 1.0  -0.01
Li     1  0.1148690000000 -0.3304170000000  0.3391650000000 1.0  -0.01
O      2 -0.1639640000000  0.2192720000000 -0.2835790000000 1.0  -0.19
O      2  0.1196150000000 -0.2192720000000  0.2835790000000 1.0  -0.19
O      2 -0.1639640000000 -0.5028510000000 -0.2835790000000 1.0  -0.19
O      2  0.1196150000000  0.5028510000000  0.2835790000000 1.0  -0.19
O      2  0.6297160000000 -0.0967610000000 -0.5925270000000 1.0  -0.25
O      2  0.2222430000000  0.0967610000000  0.5925270000000 1.0  -0.25
O      2  0.6297160000000 -0.4957660000000 -0.5925270000000 1.0  -0.25
O      2  0.2222430000000  0.4957660000000  0.5925270000000 1.0  -0.25
O      2 -0.6902680000000 -0.2425540000000  0.0000000000000 1.0  -0.08
O      2 -0.6902680000000  0.2425540000000  0.0000000000000 1.0  -0.08
S      3  0.4429540000000  0.1225510000000  0.2451010000000 1.0  -0.19
S      3  0.1978520000000 -0.1225510000000 -0.2451010000000 1.0  -0.19
Fe     4  0.3499240000000 -0.1958750000000  0.2245070000000 1.0  -2.35
Fe     4  0.1254170000000  0.1958750000000 -0.2245070000000 1.0  -2.35
Fe     4  0.3499240000000  0.4203820000000  0.2245070000000 1.0  -2.35
Fe     4  0.1254170000000 -0.4203820000000 -0.2245070000000 1.0  -2.35
Fe     4  0.3087220000000 -0.0985220000000  0.0000000000000 1.0  -2.39
Fe     4  0.3087220000000  0.0985220000000  0.0000000000000 1.0  -2.39
END
