TITL LFSO-Li3Fe3S5O-200929-021942-5c12e4 0.1656 515.386091 -10289.97337624 3.96224 8.35430 24 (Cm) n - 1
REM
REM Run started: Thu, 01 Oct 2020 03:03:05 +0100 in /lustre/scratch/uccabz1/launch_tmp/launcher_2020-09-30-23-18-31-217580
REM CASTEP 20.1 from code version af48c487+ pr-geom-scf-spinfix Tue Jun 2 15:39:59 2020 +0100
REM Functional Perdew Burke Ernzerhof Relativity Koelling-Harmon Dispersion off
REM Cut-off 340.0000 eV Grid scale 1.7500 Gmax 16.5316 1/A FBSC none
REM MP grid 3 3 2 Offset 0.000 0.000 0.000 No. kpts 9 Spacing 0.07
REM Total runtime: 138112 s
REM Overall efficiency: 98.3333 %
REM
REM
REM
REM compiler GCC version 4.9.2
REM options -cpp -iprefix /lustre/shared/ucl/apps/gcc/4.9.2/bin/../lib/gcc/x86_64-unknown-linux-gnu/4.9.2/ -mtune=corei7 -march=x86-64 -g -Og
REM COMMAND_LINE
REM seed 2058497545 1847117427 -174804702 -1628243314 1507797240 -364239457 -1190775582 -1112743765 1932718942 -2145674072 1146852973 -531897399
REM
REM S 3|1.8|5|6|7|30:31:32(qc=5)
REM O 2|1.5|12|13|15|20:21(qc=5)
REM Li 1|1.3|8|9|10|10U:20(qc=5)
REM Fe 3|2.2|2.0|1.0|8|9|10|40:41:32(qc=5)
REM 
CELL 1.54180    6.23374    6.23374   14.35538  104.50263   93.96226  105.31845
LATT -1
SFAC Li O  S  Fe 
Li     1  0.1610040000000 -0.2610970000000  0.3894520000000 1.0   0.01
Li     1 -0.3494510000000  0.2284480000000  0.3894520000000 1.0   0.01
Li     1 -0.1235990000000 -0.2183180000000  0.1677130000000 1.0   0.00
Li     1  0.3860310000000  0.2913120000000  0.1677130000000 1.0   0.00
Li     1  0.5002500000000 -0.1468340000000 -0.1103760000000 1.0   0.01
Li     1  0.0364580000000  0.3893750000000 -0.1103760000000 1.0   0.01
O      2  0.0798330000000 -0.3554560000000  0.1223680000000 1.0  -0.00
O      2  0.4778240000000  0.0425350000000  0.1223680000000 1.0  -0.00
S      3 -0.0639970000000  0.2371560000000 -0.2873700000000 1.0   0.04
S      3 -0.5245250000000 -0.2233730000000 -0.2873700000000 1.0   0.04
S      3 -0.3412460000000  0.4579970000000 -0.4310540000000 1.0  -0.00
S      3  0.1109500000000 -0.0898070000000 -0.4310540000000 1.0  -0.00
S      3 -0.1258750000000 -0.0381860000000  0.3375720000000 1.0   0.03
S      3  0.3757570000000 -0.5365530000000  0.3375720000000 1.0   0.03
S      3 -0.4580590000000 -0.1706180000000  0.0619830000000 1.0  -0.00
S      3  0.2326010000000  0.5200420000000  0.0619830000000 1.0  -0.00
S      3  0.1589910000000 -0.0018990000000 -0.1304100000000 1.0  -0.05
S      3 -0.1285110000000 -0.2894010000000 -0.1304100000000 1.0  -0.05
Fe     4 -0.1376090000000 -0.4447410000000 -0.2871650000000 1.0   1.36
Fe     4  0.1575760000000 -0.1495560000000 -0.2871650000000 1.0   1.36
Fe     4 -0.4377820000000 -0.3616260000000  0.4756840000000 1.0   0.86
Fe     4 -0.1626900000000 -0.0865340000000  0.4756840000000 1.0   0.86
Fe     4 -0.2850550000000  0.1458040000000 -0.4170600000000 1.0  -0.83
Fe     4  0.4371360000000 -0.1320060000000 -0.4170600000000 1.0  -0.83
END
