TITL LFSO-Li6FeS2O2-200920-201643-1fb78d 0.0463 363.338307 -7.08995460E+003 9.98197 10.0902 22 (C222) n - 1
REM
REM Run started: Mon, 21 Sep 2020 06:16:07 +0100 in /lustre/scratch/uccabz1/launch_tmp/launcher_2020-09-20-19-16-41-276322
REM CASTEP 20.1 from code version af48c487+ pr-geom-scf-spinfix Tue Jun 2 15:39:59 2020 +0100
REM Functional Perdew Burke Ernzerhof Relativity Koelling-Harmon Dispersion off
REM Cut-off 340.0000 eV Grid scale 1.7500 Gmax 16.5316 1/A FBSC none
REM MP grid 3 4 2 Offset 0.000 0.000 0.000 No. kpts 6 Spacing 0.07
REM Total runtime: 36093 s
REM Overall efficiency: 95.6364 %
REM
REM
REM
REM compiler GCC version 4.9.2
REM options -cpp -iprefix /lustre/shared/ucl/apps/gcc/4.9.2/bin/../lib/gcc/x86_64-unknown-linux-gnu/4.9.2/ -mtune=corei7 -march=x86-64 -g -Og
REM COMMAND_LINE
REM seed 652351934 2143257843 -1136318462 1286616933 1536022349 210863903 2031719698 846684622 1936768907 -1977245211 1506198104 -421273056
REM
REM S 3|1.8|5|6|7|30:31:32(qc=5)
REM O 2|1.5|12|13|15|20:21(qc=5)
REM Li 1|1.3|8|9|10|10U:20(qc=5)
REM Fe 3|2.2|2.0|1.0|8|9|10|40:41:32(qc=5)
REM 
CELL 1.54180    7.13932    5.56371   11.92536   90.00000   90.00000  129.91109
LATT -1
SFAC Li O  S  Fe 
Li     1  0.7946950000000  0.2747870000000 -0.3989250000000 1.0   0.20
Li     1 -0.7946950000000 -0.2747870000000 -0.3989250000000 1.0   0.20
Li     1 -0.5199070000000  0.2747870000000  0.3989250000000 1.0   0.20
Li     1  0.5199070000000 -0.2747870000000  0.3989250000000 1.0   0.20
Li     1 -0.1363000000000  0.7273990000000  0.0000000000000 1.0  -0.00
Li     1  0.1363000000000 -0.7273990000000  0.0000000000000 1.0  -0.00
Li     1  0.5000000000000 -0.5000000000000 -0.2712870000000 1.0  -0.09
Li     1  0.0000000000000  0.5000000000000  0.2712870000000 1.0  -0.09
Li     1  0.0000000000000 -0.5000000000000 -0.2263680000000 1.0   0.04
Li     1  0.5000000000000 -0.5000000000000  0.2263680000000 1.0   0.04
Li     1 -0.5000000000000  0.0000000000000  0.0000000000000 1.0   0.13
Li     1  0.0000000000000  0.0000000000000 -0.5000000000000 1.0  -0.07
O      2  0.2422540000000  0.3338710000000  0.3624140000000 1.0   0.27
O      2 -0.2422540000000 -0.3338710000000  0.3624140000000 1.0   0.27
O      2  0.0916170000000  0.3338710000000 -0.3624140000000 1.0   0.27
O      2 -0.0916170000000 -0.3338710000000 -0.3624140000000 1.0   0.27
S      3  0.2693590000000  0.0443030000000 -0.1437970000000 1.0   0.20
S      3 -0.2693590000000 -0.0443030000000 -0.1437970000000 1.0   0.20
S      3 -0.2250560000000  0.0443030000000  0.1437970000000 1.0   0.20
S      3  0.2250560000000 -0.0443030000000  0.1437970000000 1.0   0.20
Fe     4  0.0000000000000  0.0000000000000  0.2691080000000 1.0   3.65
Fe     4  0.0000000000000  0.0000000000000 -0.2691080000000 1.0   3.65
END
