TITL LFSO-Li2Fe4S4O-200911-222623-2d9386 -1.7893 322.594181 -1.10144847E+004 -0.158915 0.201203 22 (P2) n - 1
REM
REM Run started: Mon, 14 Sep 2020 01:28:43 +0100 in /lustre/scratch/uccabz1/launch_tmp/launcher_2020-09-13-21-23-00-915613
REM CASTEP 20.1 from code version af48c487+ pr-geom-scf-spinfix Tue Jun 2 15:39:59 2020 +0100
REM Functional Perdew Burke Ernzerhof Relativity Koelling-Harmon Dispersion off
REM Cut-off 340.0000 eV Grid scale 1.7500 Gmax 16.5316 1/A FBSC none
REM MP grid 4 3 2 Offset 0.000 0.000 0.000 No. kpts 6 Spacing 0.07
REM Total runtime: 64553.4 s
REM Overall efficiency: 98.2222 %
REM
REM
REM
REM compiler GCC version 4.9.2
REM options -cpp -iprefix /lustre/shared/ucl/apps/gcc/4.9.2/bin/../lib/gcc/x86_64-unknown-linux-gnu/4.9.2/ -mtune=corei7 -march=x86-64 -g -Og
REM COMMAND_LINE
REM seed 1174681959 483981390 1343567314 1357063210 1506975291 219228781 1315475974 -1249203579 1774693700 913774162 -2121682195 -1571451393
REM
REM S 3|1.8|5|6|7|30:31:32(qc=5)
REM O 2|1.5|12|13|15|20:21(qc=5)
REM Li 1|1.3|8|9|10|10U:20(qc=5)
REM Fe 3|2.2|2.0|1.0|8|9|10|40:41:32(qc=5)
REM 
CELL 1.54180    3.82220    6.78637   12.48420   94.99966   90.00000   90.00000
LATT -1
SFAC Li O  S  Fe 
Li     1 -0.0744020000000  0.2101180000000 -0.4265560000000 1.0  -0.00
Li     1 -0.0744020000000 -0.2101180000000  0.4265560000000 1.0  -0.00
Li     1 -0.1235990000000  0.0439130000000  0.1994450000000 1.0   0.00
Li     1 -0.1235990000000 -0.0439130000000 -0.1994450000000 1.0   0.00
O      2 -0.0966200000000 -0.1966060000000  0.1106150000000 1.0   0.00
O      2 -0.0966200000000  0.1966060000000 -0.1106150000000 1.0   0.00
S      3 -0.0523890000000 -0.5227220000000  0.2829680000000 1.0  -0.00
S      3 -0.0523890000000  0.5227220000000 -0.2829680000000 1.0  -0.00
S      3  0.5128670000000 -0.2541360000000 -0.1002650000000 1.0   0.00
S      3  0.5128670000000  0.2541360000000  0.1002650000000 1.0   0.00
S      3  0.3786170000000  0.0200960000000 -0.3167060000000 1.0  -0.00
S      3  0.3786170000000 -0.0200960000000  0.3167060000000 1.0  -0.00
S      3 -0.5655840000000 -0.3480270000000 -0.4703360000000 1.0  -0.00
S      3 -0.5655840000000  0.3480270000000  0.4703360000000 1.0  -0.00
Fe     4  0.4426870000000  0.3194030000000  0.2886670000000 1.0  -0.03
Fe     4  0.4426870000000 -0.3194030000000 -0.2886670000000 1.0  -0.03
Fe     4  0.2011260000000 -0.2831410000000  0.2111450000000 1.0  -0.02
Fe     4  0.2011260000000  0.2831410000000 -0.2111450000000 1.0  -0.02
Fe     4 -0.3277610000000 -0.4379800000000  0.1377740000000 1.0  -0.03
Fe     4 -0.3277610000000  0.4379800000000 -0.1377740000000 1.0  -0.03
Fe     4  0.0646840000000 -0.3353390000000 -0.0084220000000 1.0   0.00
Fe     4  0.0646840000000  0.3353390000000  0.0084220000000 1.0   0.00
END
