TITL LFSO-LiFe3S3O2-200909-141113-e7c667 0.0079 222.456838 -4.57712865E+003 -7.59091 7.87586 9 (P2) n - 1
REM
REM Run started: Wed, 09 Sep 2020 19:02:45 +0100 in /lustre/scratch/uccabz1/launch_tmp/launcher_2020-09-09-13-11-11-657763
REM CASTEP 20.1 from code version af48c487+ pr-geom-scf-spinfix Tue Jun 2 15:39:59 2020 +0100
REM Functional Perdew Burke Ernzerhof Relativity Koelling-Harmon Dispersion off
REM Cut-off 340.0000 eV Grid scale 1.7500 Gmax 16.5316 1/A FBSC none
REM MP grid 3 3 4 Offset 0.000 0.000 0.000 No. kpts 12 Spacing 0.07
REM Total runtime: 19805.7 s
REM Overall efficiency: 86 %
REM
REM
REM
REM compiler GCC version 4.9.2
REM options -cpp -iprefix /lustre/shared/ucl/apps/gcc/4.9.2/bin/../lib/gcc/x86_64-unknown-linux-gnu/4.9.2/ -mtune=corei7 -march=x86-64 -g -Og
REM COMMAND_LINE
REM seed -285522261 -900808994 1311936992 -2068416555 1297590066 1574697455 -1509739497 657019774 1843698874 -1806161880 1294025162 1702724432
REM
REM S 3|1.8|5|6|7|30:31:32(qc=5)
REM O 2|1.5|12|13|15|20:21(qc=5)
REM Li 1|1.3|8|9|10|10U:20(qc=5)
REM Fe 3|2.2|2.0|1.0|8|9|10|40:41:32(qc=5)
REM 
CELL 1.54180    8.81724    5.55171    6.17053   90.00000  132.56711   90.00000
LATT -1
SFAC Li O  S  Fe 
Li     1  0.0000000000000  0.0529630000000  0.5000000000000 1.0  -0.02
O      2  0.0225830000000 -0.0091360000000  0.2179870000000 1.0  -0.15
O      2 -0.0225830000000 -0.0091360000000 -0.2179870000000 1.0  -0.15
S      3  0.1587040000000  0.4841110000000 -0.0754840000000 1.0  -0.21
S      3 -0.1587040000000  0.4841110000000  0.0754840000000 1.0  -0.21
S      3  0.5000000000000  0.1135850000000  0.5000000000000 1.0  -0.04
Fe     4  0.1835070000000  0.1583700000000  0.1431790000000 1.0  -2.09
Fe     4 -0.1835070000000  0.1583700000000 -0.1431790000000 1.0  -2.09
Fe     4  0.0000000000000 -0.2802550000000  0.0000000000000 1.0  -2.62
END
