TITL LFSO-Li3Fe3SO5-201001-213129-12d35a 0.0130 182.170577 -5.68128927E+003 -8.37890 8.69176 12 (P2) n - 1
REM
REM Run started: Thu, 01 Oct 2020 23:31:28 +0100 in /lustre/scratch/uccabz1/launch_tmp/launcher_2020-10-01-20-31-28-077540
REM CASTEP 20.1 from code version af48c487+ pr-geom-scf-spinfix Tue Jun 2 15:39:59 2020 +0100
REM Functional Perdew Burke Ernzerhof Relativity Koelling-Harmon Dispersion off
REM Cut-off 340.0000 eV Grid scale 1.7500 Gmax 16.5316 1/A FBSC none
REM MP grid 6 3 2 Offset 0.000 0.000 0.000 No. kpts 9 Spacing 0.07
REM Total runtime: 7344.33 s
REM Overall efficiency: 78.3 %
REM
REM
REM
REM compiler GCC version 4.9.2
REM options -cpp -iprefix /lustre/shared/ucl/apps/gcc/4.9.2/bin/../lib/gcc/x86_64-unknown-linux-gnu/4.9.2/ -mtune=corei7 -march=x86-64 -g -Og
REM COMMAND_LINE
REM seed 1049404864 2016077887 -302778709 -1767398630 -1863670179 718475709 1946245793 -431731631 1837562626 1427667149 1376398259 1898119152
REM
REM S 3|1.8|5|6|7|30:31:32(qc=5)
REM O 2|1.5|12|13|15|20:21(qc=5)
REM Li 1|1.3|8|9|10|10U:20(qc=5)
REM Fe 3|2.2|2.0|1.0|8|9|10|40:41:32(qc=5)
REM 
CELL 1.54180    2.87348    6.67372    9.87954   90.00000   90.00000  105.94285
LATT -1
SFAC Li O  S  Fe 
Li     1  0.3497560000000 -0.2061690000000 -0.2887190000000 1.0  -0.02
Li     1 -0.3497560000000  0.2061690000000 -0.2887190000000 1.0  -0.02
Li     1  0.0000000000000 -0.5000000000000  0.0108950000000 1.0  -0.01
O      2 -0.6579690000000 -0.2675850000000 -0.0968880000000 1.0  -0.18
O      2  0.6579690000000  0.2675850000000 -0.0968880000000 1.0  -0.18
O      2  0.6845030000000  0.2949350000000  0.1979940000000 1.0  -0.32
O      2 -0.6845030000000 -0.2949350000000  0.1979940000000 1.0  -0.32
O      2  0.0000000000000  0.0000000000000 -0.2556710000000 1.0  -0.12
S      3  0.5000000000000  0.0000000000000  0.4273350000000 1.0  -0.00
Fe     4  0.1179100000000  0.1880820000000  0.2851250000000 1.0  -2.36
Fe     4 -0.1179100000000 -0.1880820000000  0.2851250000000 1.0  -2.36
Fe     4  0.5000000000000  0.0000000000000 -0.1026470000000 1.0  -2.48
END
