TITL LFSO-Li2Fe4S2O3-200912-072815-94aac5 -0.0505 358.453472 -1.15469439E+004 0.825287E-01 0.196877 22 (Cm) n - 1
REM
REM Run started: Sun, 13 Sep 2020 20:25:38 +0100 in /lustre/scratch/uccabz1/launch_tmp/launcher_2020-09-12-06-28-12-439660
REM CASTEP 20.1 from code version af48c487+ pr-geom-scf-spinfix Tue Jun 2 15:39:59 2020 +0100
REM Functional Perdew Burke Ernzerhof Relativity Koelling-Harmon Dispersion off
REM Cut-off 340.0000 eV Grid scale 1.7500 Gmax 16.5316 1/A FBSC none
REM MP grid 4 2 2 Offset 0.000 0.000 0.000 No. kpts 8 Spacing 0.07
REM Total runtime: 144709 s
REM Overall efficiency: 98.8333 %
REM
REM
REM
REM compiler GCC version 4.9.2
REM options -cpp -iprefix /lustre/shared/ucl/apps/gcc/4.9.2/bin/../lib/gcc/x86_64-unknown-linux-gnu/4.9.2/ -mtune=corei7 -march=x86-64 -g -Og
REM COMMAND_LINE
REM seed 1586089257 -570659754 -805694733 1696115614 -1371744459 -48222607 -1202801384 999719080 -1391042758 383352387 -27080201 640459684
REM
REM S 3|1.8|5|6|7|30:31:32(qc=5)
REM O 2|1.5|12|13|15|20:21(qc=5)
REM Li 1|1.3|8|9|10|10U:20(qc=5)
REM Fe 3|2.2|2.0|1.0|8|9|10|40:41:32(qc=5)
REM 
CELL 1.54180    4.89489    8.68172    9.14791   85.53116   73.95504   73.62591
LATT -1
SFAC Li O  S  Fe 
Li     1 -0.1313950000000 -0.4137650000000  0.1579850000000 1.0   0.00
Li     1  0.4548400000000  0.4137650000000  0.1579850000000 1.0   0.00
Li     1 -0.3907780000000  0.2388020000000 -0.5949970000000 1.0  -0.00
Li     1 -0.1519760000000 -0.2388020000000 -0.5949970000000 1.0  -0.00
O      2  0.1679950000000 -0.3807220000000  0.2581970000000 1.0   0.00
O      2 -0.2127270000000  0.3807220000000  0.2581970000000 1.0   0.00
O      2  0.3371770000000  0.2373590000000 -0.2592560000000 1.0  -0.00
O      2 -0.4254640000000 -0.2373590000000 -0.2592560000000 1.0  -0.00
O      2  0.5316490000000 -0.3334030000000  0.4307090000000 1.0   0.00
O      2  0.1982460000000  0.3334030000000  0.4307090000000 1.0   0.00
S      3  0.0417900000000 -0.3261000000000 -0.1206610000000 1.0   0.00
S      3 -0.2843110000000  0.3261000000000 -0.1206610000000 1.0   0.00
S      3 -0.6065370000000 -0.2856810000000  0.1047210000000 1.0   0.00
S      3  0.1077830000000  0.2856810000000  0.1047210000000 1.0   0.00
Fe     4  0.2846750000000 -0.4678380000000 -0.5495870000000 1.0   0.07
Fe     4 -0.1831630000000  0.4678380000000 -0.5495870000000 1.0   0.07
Fe     4 -0.0699440000000 -0.3837570000000 -0.3202660000000 1.0  -0.00
Fe     4 -0.4537010000000  0.3837570000000 -0.3202660000000 1.0  -0.00
Fe     4 -0.4988810000000 -0.4117560000000 -0.1141990000000 1.0  -0.00
Fe     4  0.0893620000000  0.4117560000000 -0.1141990000000 1.0  -0.00
Fe     4  0.4040140000000 -0.3428780000000 -0.3582730000000 1.0  -0.00
Fe     4  0.0611360000000  0.3428780000000 -0.3582730000000 1.0  -0.00
END
