TITL LFSO-LiFe3S3O2-200909-121823-1eee00 -0.0344 303.836455 -9.15531387E+003 -10.9777 11.9225 18 (Cc) n - 1
REM
REM Run started: Thu, 10 Sep 2020 01:08:42 +0100 in /lustre/scratch/uccabz1/launch_tmp/launcher_2020-09-09-11-18-21-527372
REM CASTEP 20.1 from code version af48c487+ pr-geom-scf-spinfix Tue Jun 2 15:39:59 2020 +0100
REM Functional Perdew Burke Ernzerhof Relativity Koelling-Harmon Dispersion off
REM Cut-off 340.0000 eV Grid scale 1.7500 Gmax 16.5316 1/A FBSC none
REM MP grid 4 2 3 Offset 0.000 0.000 0.000 No. kpts 12 Spacing 0.07
REM Total runtime: 46609.6 s
REM Overall efficiency: 98.3333 %
REM
REM
REM
REM compiler GCC version 4.9.2
REM options -cpp -iprefix /lustre/shared/ucl/apps/gcc/4.9.2/bin/../lib/gcc/x86_64-unknown-linux-gnu/4.9.2/ -mtune=corei7 -march=x86-64 -g -Og
REM COMMAND_LINE
REM seed -656642751 950108679 751890986 -1170423426 -722332218 788904434 -74255573 -16651604 1095439088 -2079723101 1857879046 -541643197
REM
REM S 3|1.8|5|6|7|30:31:32(qc=5)
REM O 2|1.5|12|13|15|20:21(qc=5)
REM Li 1|1.3|8|9|10|10U:20(qc=5)
REM Fe 3|2.2|2.0|1.0|8|9|10|40:41:32(qc=5)
REM 
CELL 1.54180    3.87254   11.32738    9.36696  127.20334   72.78423   90.00000
LATT -1
SFAC Li O  S  Fe 
Li     1 -0.4994070000000 -0.1883190000000 -0.2182860000000 1.0   0.01
Li     1  0.0005930000000 -0.0299670000000 -0.2182860000000 1.0   0.01
O      2 -0.2559700000000  0.1927970000000  0.0626440000000 1.0   0.00
O      2  0.2440300000000 -0.1301530000000  0.0626440000000 1.0   0.00
O      2  0.0406870000000 -0.2494710000000 -0.2868810000000 1.0  -0.25
O      2 -0.4593130000000 -0.0374100000000 -0.2868810000000 1.0  -0.25
S      3  0.3221870000000  0.1825400000000  0.1340850000000 1.0   0.11
S      3 -0.1778130000000 -0.0484550000000  0.1340850000000 1.0   0.11
S      3 -0.4922460000000  0.3894670000000 -0.4797010000000 1.0  -0.04
S      3  0.0077540000000  0.1308320000000 -0.4797010000000 1.0  -0.04
S      3  0.3689600000000 -0.4964170000000  0.2568700000000 1.0  -0.06
S      3 -0.1310400000000 -0.2467130000000  0.2568700000000 1.0  -0.06
Fe     4  0.1935570000000 -0.4437060000000 -0.4703260000000 1.0  -2.30
Fe     4 -0.3064430000000 -0.0266200000000 -0.4703260000000 1.0  -2.30
Fe     4  0.3994760000000 -0.1336300000000  0.2438960000000 1.0  -2.31
Fe     4 -0.1005240000000  0.3775260000000  0.2438960000000 1.0  -2.31
Fe     4  0.5651220000000  0.1412540000000  0.4275320000000 1.0  -0.64
Fe     4  0.0651220000000  0.2862790000000  0.4275320000000 1.0  -0.64
END
