TITL LFSO-LiFe3S4O-200909-094636-406a10 0.0301 297.631017 -8.88491035E+003 -15.6684 16.1186 18 (Ccc2) n - 1
REM
REM Run started: Wed, 09 Sep 2020 13:20:54 +0100 in /lustre/scratch/uccabz1/launch_tmp/launcher_2020-09-09-08-46-34-778273
REM CASTEP 20.1 from code version af48c487+ pr-geom-scf-spinfix Tue Jun 2 15:39:59 2020 +0100
REM Functional Perdew Burke Ernzerhof Relativity Koelling-Harmon Dispersion off
REM Cut-off 340.0000 eV Grid scale 1.7500 Gmax 16.5316 1/A FBSC none
REM MP grid 3 3 2 Offset 0.000 0.000 0.000 No. kpts 6 Spacing 0.07
REM Total runtime: 13090.4 s
REM Overall efficiency: 97.6667 %
REM
REM
REM
REM compiler GCC version 4.9.2
REM options -cpp -iprefix /lustre/shared/ucl/apps/gcc/4.9.2/bin/../lib/gcc/x86_64-unknown-linux-gnu/4.9.2/ -mtune=corei7 -march=x86-64 -g -Og
REM COMMAND_LINE
REM seed -718396955 1136377350 -1282902418 173143559 -60917003 1290038322 1351872727 1308101130 1934684714 -847589797 -1064222995 2007503514
REM
REM S 3|1.8|5|6|7|30:31:32(qc=5)
REM O 2|1.5|12|13|15|20:21(qc=5)
REM Li 1|1.3|8|9|10|10U:20(qc=5)
REM Fe 3|2.2|2.0|1.0|8|9|10|40:41:32(qc=5)
REM 
CELL 1.54180    5.99444    6.08668    8.69054   90.00000  110.17466   90.00000
LATT -1
SFAC Li O  S  Fe 
Li     1  0.0000000000000 -0.1818170000000  0.0000000000000 1.0   0.01
Li     1  0.0000000000000  0.3181830000000  0.0000000000000 1.0   0.01
O      2 -0.5000000000000 -0.0665200000000 -0.5000000000000 1.0  -0.31
O      2  0.0000000000000  0.4334800000000  0.5000000000000 1.0  -0.31
S      3 -0.4737380000000  0.2550780000000  0.2171410000000 1.0  -0.13
S      3  0.4737380000000  0.2550780000000 -0.2171410000000 1.0  -0.13
S      3  0.3091210000000 -0.2449220000000 -0.2171410000000 1.0  -0.13
S      3 -0.3091210000000 -0.2449220000000  0.2171410000000 1.0  -0.13
S      3 -0.0343050000000  0.0830000000000 -0.2434840000000 1.0  -0.03
S      3  0.0343050000000  0.0830000000000  0.2434840000000 1.0  -0.03
S      3  0.2091790000000 -0.4170000000000  0.2434840000000 1.0  -0.03
S      3 -0.2091790000000 -0.4170000000000 -0.2434840000000 1.0  -0.03
Fe     4  0.4091100000000 -0.0621860000000  0.2773220000000 1.0  -1.99
Fe     4 -0.4091100000000 -0.0621860000000 -0.2773220000000 1.0  -1.99
Fe     4  0.1317890000000  0.4378140000000 -0.2773220000000 1.0  -1.99
Fe     4 -0.1317890000000  0.4378140000000  0.2773220000000 1.0  -1.99
Fe     4  0.0000000000000  0.1235370000000  0.5000000000000 1.0  -3.22
Fe     4 -0.5000000000000 -0.3764630000000 -0.5000000000000 1.0  -3.22
END
