TITL LFSO-Li2Fe4S4O-200911-212834-7bc74f -0.0485 351.924509 -1.10110894E+004 6.39604 16.6765 22 (Cc) n - 1
REM
REM Run started: Sun, 13 Sep 2020 15:42:16 +0100 in /lustre/scratch/uccabz1/launch_tmp/launcher_2020-09-11-20-28-31-959804
REM CASTEP 20.1 from code version af48c487+ pr-geom-scf-spinfix Tue Jun 2 15:39:59 2020 +0100
REM Functional Perdew Burke Ernzerhof Relativity Koelling-Harmon Dispersion off
REM Cut-off 340.0000 eV Grid scale 1.7500 Gmax 16.5316 1/A FBSC none
REM MP grid 5 2 2 Offset 0.000 0.000 0.000 No. kpts 10 Spacing 0.07
REM Total runtime: 152599 s
REM Overall efficiency: 79.9 %
REM
REM
REM
REM compiler GCC version 4.9.2
REM options -cpp -iprefix /lustre/shared/ucl/apps/gcc/4.9.2/bin/../lib/gcc/x86_64-unknown-linux-gnu/4.9.2/ -mtune=corei7 -march=x86-64 -g -Og
REM COMMAND_LINE
REM seed 636046849 1348224522 -1934775118 -1730918206 4411971 -59996812 1427013889 -1719582338 -724500953 1694391472 -622338429 -641420951
REM
REM S 3|1.8|5|6|7|30:31:32(qc=5)
REM O 2|1.5|12|13|15|20:21(qc=5)
REM Li 1|1.3|8|9|10|10U:20(qc=5)
REM Fe 3|2.2|2.0|1.0|8|9|10|40:41:32(qc=5)
REM 
CELL 1.54180    3.56450   12.33232   10.43394  126.22596   75.57907   90.00000
LATT -1
SFAC Li O  S  Fe 
Li     1 -0.2753270000000  0.0456800000000 -0.0620000000000 1.0  -0.07
Li     1 -0.7753270000000 -0.1076810000000 -0.0620000000000 1.0  -0.07
Li     1  0.4301680000000  0.4455150000000  0.3636220000000 1.0  -0.01
Li     1 -0.0698320000000 -0.0818930000000  0.3636220000000 1.0  -0.01
O      2  0.1646870000000  0.0966280000000  0.0224770000000 1.0   0.03
O      2 -0.3353130000000 -0.0741510000000  0.0224770000000 1.0   0.03
S      3  0.6682280000000  0.3524430000000  0.0376960000000 1.0   0.01
S      3  0.1682280000000 -0.3147470000000  0.0376960000000 1.0   0.01
S      3  0.0339350000000  0.2351710000000  0.2153080000000 1.0  -0.01
S      3  0.5339350000000 -0.0198630000000  0.2153080000000 1.0  -0.01
S      3 -0.2519770000000  0.1404590000000 -0.3917550000000 1.0   0.04
S      3  0.2480230000000  0.4677860000000 -0.3917550000000 1.0   0.04
S      3  0.4044270000000 -0.1866870000000  0.3982330000000 1.0   0.12
S      3 -0.0955730000000 -0.4150800000000  0.3982330000000 1.0   0.12
Fe     4  0.2759080000000 -0.2825560000000 -0.4243950000000 1.0   2.64
Fe     4 -0.2240920000000 -0.1418390000000 -0.4243950000000 1.0   2.64
Fe     4 -0.2746140000000 -0.3986760000000 -0.3640530000000 1.0   2.79
Fe     4  0.2253860000000  0.0346230000000 -0.3640530000000 1.0   2.79
Fe     4 -0.4196160000000 -0.2239490000000  0.1584550000000 1.0  -0.09
Fe     4  0.0803840000000  0.3824040000000  0.1584550000000 1.0  -0.09
Fe     4  0.4201110000000  0.2500000000000  0.3763770000000 1.0  -2.26
Fe     4 -0.0798890000000  0.1263770000000  0.3763770000000 1.0  -2.26
END
