TITL LFSO-Li3FeSO2-200911-165122-07548c 0.0140 180.130235 -5.28666181E+003 0.191404E-04 0.709305E-04 14 (P-1) n - 1
REM
REM Run started: Fri, 11 Sep 2020 21:40:09 +0100 in /lustre/scratch/uccabz1/launch_tmp/launcher_2020-09-11-15-51-20-606153
REM CASTEP 20.1 from code version af48c487+ pr-geom-scf-spinfix Tue Jun 2 15:39:59 2020 +0100
REM Functional Perdew Burke Ernzerhof Relativity Koelling-Harmon Dispersion off
REM Cut-off 340.0000 eV Grid scale 1.7500 Gmax 16.5316 1/A FBSC none
REM MP grid 3 6 2 Offset 0.000 0.000 0.000 No. kpts 18 Spacing 0.07
REM Total runtime: 17432.3 s
REM Overall efficiency: 96.2308 %
REM
REM
REM
REM compiler GCC version 4.9.2
REM options -cpp -iprefix /lustre/shared/ucl/apps/gcc/4.9.2/bin/../lib/gcc/x86_64-unknown-linux-gnu/4.9.2/ -mtune=corei7 -march=x86-64 -g -Og
REM COMMAND_LINE
REM seed 302932739 -1572264482 -1101961546 -1859146415 1776395342 -1574874525 -89906260 1878885659 -218713574 -132949412 -1015441060 1886544805
REM
REM S 3|1.8|5|6|7|30:31:32(qc=5)
REM O 2|1.5|12|13|15|20:21(qc=5)
REM Li 1|1.3|8|9|10|10U:20(qc=5)
REM Fe 3|2.2|2.0|1.0|8|9|10|40:41:32(qc=5)
REM 
CELL 1.54180    6.46082    3.34174   10.28388   80.77736   77.09082   56.42538
LATT -1
SFAC Li O  S  Fe 
Li     1  0.2463180000000  0.3901950000000  0.2396050000000 1.0
Li     1 -0.2463180000000 -0.3901950000000 -0.2396050000000 1.0
Li     1 -0.0138480000000 -0.1989650000000 -0.0737690000000 1.0
Li     1  0.0138480000000  0.1989650000000  0.0737690000000 1.0
Li     1  0.4571910000000 -0.2413720000000  0.0781080000000 1.0
Li     1 -0.4571910000000  0.2413720000000 -0.0781080000000 1.0
O      2 -0.3940090000000  0.2831230000000 -0.2742360000000 1.0
O      2  0.3940090000000 -0.2831230000000  0.2742360000000 1.0
O      2  0.2294180000000  0.4939310000000  0.0516040000000 1.0
O      2 -0.2294180000000 -0.4939310000000 -0.0516040000000 1.0
S      3 -0.1821000000000 -0.2824270000000  0.3842060000000 1.0
S      3  0.1821000000000  0.2824270000000 -0.3842060000000 1.0
Fe     4  0.5776630000000 -0.5318980000000  0.3955020000000 1.0
Fe     4 -0.5776630000000  0.5318980000000 -0.3955020000000 1.0
END
