TITL LFSO-Li3Fe3S5O-200929-120605-189f65 -0.0833 536.991407 -1.02915871E+004 20.2549 20.7279 24 (I212121) n - 1
REM
REM Run started: Wed, 30 Sep 2020 00:41:44 +0100 in /lustre/scratch/uccabz1/launch_tmp/launcher_2020-09-29-18-07-44-835282
REM CASTEP 20.1 from code version af48c487+ pr-geom-scf-spinfix Tue Jun 2 15:39:59 2020 +0100
REM Functional Perdew Burke Ernzerhof Relativity Koelling-Harmon Dispersion off
REM Cut-off 340.0000 eV Grid scale 1.7500 Gmax 16.5316 1/A FBSC none
REM MP grid 3 2 2 Offset 0.000 0.000 0.000 No. kpts 5 Spacing 0.07
REM Total runtime: 41335.1 s
REM Overall efficiency: 72.4615 %
REM
REM
REM
REM compiler GCC version 4.9.2
REM options -cpp -iprefix /lustre/shared/ucl/apps/gcc/4.9.2/bin/../lib/gcc/x86_64-unknown-linux-gnu/4.9.2/ -mtune=corei7 -march=x86-64 -g -Og
REM COMMAND_LINE
REM seed 1891242285 -1747429901 369524463 1999347902 -134969855 2141963010 1664907777 226041744 -1243954648 527105259 -916463743 708801589
REM
REM S 3|1.8|5|6|7|30:31:32(qc=5)
REM O 2|1.5|12|13|15|20:21(qc=5)
REM Li 1|1.3|8|9|10|10U:20(qc=5)
REM Fe 3|2.2|2.0|1.0|8|9|10|40:41:32(qc=5)
REM 
CELL 1.54180    5.69341   10.44031   10.44031   66.22721   74.17708   74.17708
LATT -1
SFAC Li O  S  Fe 
Li     1 -0.0142140000000  0.1799810000000 -0.6123140000000 1.0   0.01
Li     1  0.5534530000000  0.3200190000000  0.1123140000000 1.0   0.01
Li     1 -0.4857860000000  0.1123140000000  0.3200190000000 1.0   0.01
Li     1 -0.0534530000000 -0.6123140000000  0.1799810000000 1.0   0.01
Li     1  0.0815910000000  0.1684090000000  0.1684090000000 1.0   0.01
Li     1  0.4184090000000  0.3315910000000  0.3315910000000 1.0   0.01
O      2 -0.2500000000000  0.2336730000000  0.2663270000000 1.0   0.05
O      2  0.2500000000000  0.2663270000000  0.2336730000000 1.0   0.05
S      3 -0.0583340000000  0.0127120000000 -0.1162970000000 1.0   0.06
S      3 -0.1619190000000  0.4872880000000 -0.3837030000000 1.0   0.06
S      3 -0.4416660000000 -0.3837030000000  0.4872880000000 1.0   0.06
S      3 -0.3380810000000 -0.1162970000000  0.0127120000000 1.0   0.06
S      3 -0.0034720000000  0.3535460000000 -0.0720870000000 1.0   0.51
S      3  0.2779870000000  0.1464540000000 -0.4279130000000 1.0   0.51
S      3 -0.4965280000000 -0.4279130000000  0.1464540000000 1.0   0.51
S      3  0.2220130000000 -0.0720870000000  0.3535460000000 1.0   0.51
S      3  0.4917220000000 -0.2417220000000 -0.2417220000000 1.0   0.22
S      3  0.0082780000000 -0.2582780000000 -0.2582780000000 1.0   0.22
Fe     4  0.6984320000000 -0.3049900000000 -0.0463160000000 1.0   2.71
Fe     4  0.3471270000000 -0.1950100000000 -0.4536840000000 1.0   2.71
Fe     4 -0.1984320000000 -0.4536840000000 -0.1950100000000 1.0   2.71
Fe     4 -0.8471270000000 -0.0463160000000 -0.3049900000000 1.0   2.71
Fe     4  0.3488570000000 -0.0988570000000 -0.0988570000000 1.0   3.29
Fe     4  0.1511430000000 -0.4011430000000 -0.4011430000000 1.0   3.29
END
