TITL LFSO-Li5FeS3O-200910-092838-5358ba 0.0263 170.800300 -3.21312698E+003 4.51928 4.55344 10 (P2) n - 1
REM
REM Run started: Thu, 10 Sep 2020 12:21:42 +0100 in /lustre/scratch/uccabz1/launch_tmp/launcher_2020-09-10-08-28-36-855082
REM CASTEP 20.1 from code version af48c487+ pr-geom-scf-spinfix Tue Jun 2 15:39:59 2020 +0100
REM Functional Perdew Burke Ernzerhof Relativity Koelling-Harmon Dispersion off
REM Cut-off 340.0000 eV Grid scale 1.7500 Gmax 16.5316 1/A FBSC none
REM MP grid 2 5 3 Offset 0.000 0.000 0.000 No. kpts 10 Spacing 0.07
REM Total runtime: 11048.4 s
REM Overall efficiency: 83.6154 %
REM
REM
REM
REM compiler GCC version 4.9.2
REM options -cpp -iprefix /lustre/shared/ucl/apps/gcc/4.9.2/bin/../lib/gcc/x86_64-unknown-linux-gnu/4.9.2/ -mtune=corei7 -march=x86-64 -g -Og
REM COMMAND_LINE
REM seed 713040492 -958139192 1399713481 697705653 1661718996 -1431191666 -1506565820 165977384 -2131959069 -850537036 -1836365073 1631833688
REM
REM S 3|1.8|5|6|7|30:31:32(qc=5)
REM O 2|1.5|12|13|15|20:21(qc=5)
REM Li 1|1.3|8|9|10|10U:20(qc=5)
REM Fe 3|2.2|2.0|1.0|8|9|10|40:41:32(qc=5)
REM 
CELL 1.54180    8.01301    3.79827    6.04696   90.00000   90.00000  111.86745
LATT -1
SFAC Li O  S  Fe 
Li     1 -0.3539130000000  0.3106490000000  0.0789010000000 1.0  -0.03
Li     1  0.3539130000000 -0.3106490000000  0.0789010000000 1.0  -0.03
Li     1  0.3232520000000 -0.1143860000000 -0.3264360000000 1.0   0.05
Li     1 -0.3232520000000  0.1143860000000 -0.3264360000000 1.0   0.05
Li     1  0.0000000000000  0.5000000000000  0.4544920000000 1.0  -0.02
O      2 -0.5000000000000  0.0000000000000 -0.1252110000000 1.0   0.04
S      3 -0.2318240000000 -0.1886880000000  0.3559940000000 1.0   0.33
S      3  0.2318240000000  0.1886880000000  0.3559940000000 1.0   0.33
S      3  0.0000000000000  0.5000000000000 -0.1036770000000 1.0   0.26
Fe     4  0.0000000000000  0.0000000000000  0.1142590000000 1.0   3.54
END
