TITL LFSO-Li2Fe3SO3-200912-085651-4943e9 0.0498 131.001129 -4.60794911E+003 8.01043 8.20752 9 (P2) n - 1
REM
REM Run started: Sat, 12 Sep 2020 11:41:50 +0100 in /lustre/scratch/uccabz1/launch_tmp/launcher_2020-09-12-07-56-49-726024
REM CASTEP 20.1 from code version af48c487+ pr-geom-scf-spinfix Tue Jun 2 15:39:59 2020 +0100
REM Functional Perdew Burke Ernzerhof Relativity Koelling-Harmon Dispersion off
REM Cut-off 340.0000 eV Grid scale 1.7500 Gmax 16.5316 1/A FBSC none
REM MP grid 3 5 3 Offset 0.000 0.000 0.000 No. kpts 16 Spacing 0.07
REM Total runtime: 10543.5 s
REM Overall efficiency: 91 %
REM
REM
REM
REM compiler GCC version 4.9.2
REM options -cpp -iprefix /lustre/shared/ucl/apps/gcc/4.9.2/bin/../lib/gcc/x86_64-unknown-linux-gnu/4.9.2/ -mtune=corei7 -march=x86-64 -g -Og
REM COMMAND_LINE
REM seed 1048787658 2057200515 276431132 -1835844065 1956839049 -1265006638 -1855875254 376214978 -729334350 1354490372 -1968826208 1382216048
REM
REM S 3|1.8|5|6|7|30:31:32(qc=5)
REM O 2|1.5|12|13|15|20:21(qc=5)
REM Li 1|1.3|8|9|10|10U:20(qc=5)
REM Fe 3|2.2|2.0|1.0|8|9|10|40:41:32(qc=5)
REM 
CELL 1.54180    5.86572    3.60713    6.19818   87.32888   90.00000   90.00000
LATT -1
SFAC Li O  S  Fe 
Li     1  0.2280050000000  0.2793750000000 -0.2086440000000 1.0  -0.01
Li     1  0.2280050000000 -0.2793750000000  0.2086440000000 1.0  -0.01
O      2 -0.0725480000000  0.2549800000000 -0.2874100000000 1.0   0.21
O      2 -0.0725480000000 -0.2549800000000  0.2874100000000 1.0   0.21
O      2 -0.5845100000000  0.0000000000000  0.0000000000000 1.0   0.15
S      3  0.4680370000000  0.0000000000000 -0.5000000000000 1.0   0.16
Fe     4 -0.3380500000000 -0.0549190000000  0.1901370000000 1.0   2.45
Fe     4 -0.3380500000000  0.0549190000000 -0.1901370000000 1.0   2.45
Fe     4 -0.2425760000000 -0.5000000000000  0.5000000000000 1.0   2.41
END
