TITL LFSO-LiFe3SO4-200908-230856-f554ae 0.0253 239.224509 -9.69147423E+003 -0.112507E-01 0.455166E-01 18 (Pmn21) n - 1
REM
REM Run started: Wed, 09 Sep 2020 10:41:13 +0100 in /lustre/scratch/uccabz1/launch_tmp/launcher_2020-09-08-22-08-54-293738
REM CASTEP 20.1 from code version af48c487+ pr-geom-scf-spinfix Tue Jun 2 15:39:59 2020 +0100
REM Functional Perdew Burke Ernzerhof Relativity Koelling-Harmon Dispersion off
REM Cut-off 340.0000 eV Grid scale 1.7500 Gmax 16.5316 1/A FBSC none
REM MP grid 5 3 2 Offset 0.000 0.000 0.000 No. kpts 6 Spacing 0.07
REM Total runtime: 42479.2 s
REM Overall efficiency: 97.2727 %
REM
REM
REM
REM compiler GCC version 4.9.2
REM options -cpp -iprefix /lustre/shared/ucl/apps/gcc/4.9.2/bin/../lib/gcc/x86_64-unknown-linux-gnu/4.9.2/ -mtune=corei7 -march=x86-64 -g -Og
REM COMMAND_LINE
REM seed 602669644 860610497 -453246473 1692021109 -708222214 747231913 -117637400 2112008013 1449085643 1637748315 -1742582380 -214772697
REM
REM S 3|1.8|5|6|7|30:31:32(qc=5)
REM O 2|1.5|12|13|15|20:21(qc=5)
REM Li 1|1.3|8|9|10|10U:20(qc=5)
REM Fe 3|2.2|2.0|1.0|8|9|10|40:41:32(qc=5)
REM 
CELL 1.54180    3.44827    5.73442   12.09803   90.00000   90.00000   90.00000
LATT -1
SFAC Li O  S  Fe 
Li     1 -0.3217800000000 -0.0000000000000  0.2602980000000 1.0  -0.00
Li     1  0.1782200000000 -0.5000000000000 -0.2602980000000 1.0  -0.00
O      2  0.2034010000000 -0.2517730000000 -0.4332230000000 1.0  -0.00
O      2 -0.2965990000000 -0.2482270000000  0.4332230000000 1.0  -0.00
O      2 -0.2965990000000  0.2482270000000  0.4332230000000 1.0  -0.00
O      2  0.2034010000000  0.2517730000000 -0.4332230000000 1.0  -0.00
O      2  0.2077610000000 -0.2413950000000  0.2561060000000 1.0  -0.00
O      2 -0.2922390000000 -0.2586050000000 -0.2561060000000 1.0  -0.00
O      2 -0.2922390000000  0.2586050000000 -0.2561060000000 1.0  -0.00
O      2  0.2077610000000  0.2413950000000  0.2561060000000 1.0  -0.00
S      3  0.2114100000000 -0.0000000000000 -0.0742570000000 1.0   0.00
S      3 -0.2885900000000 -0.5000000000000  0.0742570000000 1.0   0.00
Fe     4 -0.2964350000000  0.2141600000000 -0.4012200000000 1.0  -0.00
Fe     4  0.2035650000000  0.2858400000000  0.4012200000000 1.0  -0.00
Fe     4  0.2035650000000 -0.2858400000000  0.4012200000000 1.0  -0.00
Fe     4 -0.2964350000000 -0.2141600000000 -0.4012200000000 1.0  -0.00
Fe     4 -0.2880430000000 -0.0000000000000 -0.1779240000000 1.0   0.01
Fe     4  0.2119570000000 -0.5000000000000  0.1779240000000 1.0   0.01
END
