TITL LFSO-Li2FeSO-200912-034537-b1f829 0.0978 373.035884 -8.02142421E+003 15.3639 15.6379 20 (R3) n - 1
REM
REM Run started: Sun, 13 Sep 2020 04:58:52 +0100 in /lustre/scratch/uccabz1/launch_tmp/launcher_2020-09-12-02-45-34-213671
REM CASTEP 20.1 from code version af48c487+ pr-geom-scf-spinfix Tue Jun 2 15:39:59 2020 +0100
REM Functional Perdew Burke Ernzerhof Relativity Koelling-Harmon Dispersion off
REM Cut-off 340.0000 eV Grid scale 1.7500 Gmax 16.5316 1/A FBSC none
REM MP grid 3 3 3 Offset 0.000 0.000 0.000 No. kpts 6 Spacing 0.07
REM Total runtime: 99637.6 s
REM Overall efficiency: 98.8333 %
REM
REM
REM
REM compiler GCC version 4.9.2
REM options -cpp -iprefix /lustre/shared/ucl/apps/gcc/4.9.2/bin/../lib/gcc/x86_64-unknown-linux-gnu/4.9.2/ -mtune=corei7 -march=x86-64 -g -Og
REM COMMAND_LINE
REM seed -192837399 1096550778 -1938073477 -77975067 1786735300 2045951204 -1304438743 1171547514 1039976494 -1880414582 -2132274743 1743236672
REM
REM S 3|1.8|5|6|7|30:31:32(qc=5)
REM O 2|1.5|12|13|15|20:21(qc=5)
REM Li 1|1.3|8|9|10|10U:20(qc=5)
REM Fe 3|2.2|2.0|1.0|8|9|10|40:41:32(qc=5)
REM 
CELL 1.54180   10.46564   10.46564   10.46564   37.05804   37.05804   37.05804
LATT -1
SFAC Li O  S  Fe 
Li     1  0.4505570000000  0.2449930000000  0.0198760000000 1.0   0.01
Li     1  0.0198760000000  0.4505570000000  0.2449930000000 1.0   0.01
Li     1  0.2449930000000  0.0198760000000  0.4505570000000 1.0   0.01
Li     1  0.6225390000000  0.0329920000000 -0.3858090000000 1.0   0.02
Li     1 -0.3858090000000  0.6225390000000  0.0329920000000 1.0   0.02
Li     1  0.0329920000000 -0.3858090000000  0.6225390000000 1.0   0.02
Li     1  0.1376480000000  0.1376480000000  0.1376480000000 1.0  -0.01
Li     1 -0.3493420000000 -0.3493420000000 -0.3493420000000 1.0   0.08
O      2 -0.6060240000000 -0.0744530000000 -0.0938200000000 1.0   0.30
O      2 -0.0938200000000 -0.6060240000000 -0.0744530000000 1.0   0.30
O      2 -0.0744530000000 -0.0938200000000 -0.6060240000000 1.0   0.30
O      2  0.1998700000000  0.1998700000000  0.1998700000000 1.0   0.02
S      3 -0.0196070000000  0.2873910000000 -0.3773670000000 1.0   0.19
S      3 -0.3773670000000 -0.0196070000000  0.2873910000000 1.0   0.19
S      3  0.2873910000000 -0.3773670000000 -0.0196070000000 1.0   0.19
S      3  0.4027390000000  0.4027390000000  0.4027390000000 1.0   0.21
Fe     4  0.1846730000000 -0.2241080000000  0.1589640000000 1.0   3.48
Fe     4  0.1589640000000  0.1846730000000 -0.2241080000000 1.0   3.48
Fe     4 -0.2241080000000  0.1589640000000  0.1846730000000 1.0   3.48
Fe     4 -0.0289220000000 -0.0289220000000 -0.0289220000000 1.0   3.07
END
