TITL LFSO-Li3Fe3SO5-200926-090614-3fb4f0 0.0584 333.051580 -1.13654235E+004 -18.1679 18.5050 24 (C222) n - 1
REM
REM Run started: Sat, 26 Sep 2020 17:08:46 +0100 in /lustre/scratch/uccabz1/launch_tmp/launcher_2020-09-26-08-06-11-765801
REM CASTEP 20.1 from code version af48c487+ pr-geom-scf-spinfix Tue Jun 2 15:39:59 2020 +0100
REM Functional Perdew Burke Ernzerhof Relativity Koelling-Harmon Dispersion off
REM Cut-off 340.0000 eV Grid scale 1.7500 Gmax 16.5316 1/A FBSC none
REM MP grid 2 3 3 Offset 0.000 0.000 0.000 No. kpts 4 Spacing 0.07
REM Total runtime: 30012.3 s
REM Overall efficiency: 98.1111 %
REM
REM
REM
REM compiler GCC version 4.9.2
REM options -cpp -iprefix /lustre/shared/ucl/apps/gcc/4.9.2/bin/../lib/gcc/x86_64-unknown-linux-gnu/4.9.2/ -mtune=corei7 -march=x86-64 -g -Og
REM COMMAND_LINE
REM seed -593693263 -818201314 1818038404 -784098128 1673060296 1558419863 91082012 -896145527 -236908005 1453638150 1719235167 1965106926
REM
REM S 3|1.8|5|6|7|30:31:32(qc=5)
REM O 2|1.5|12|13|15|20:21(qc=5)
REM Li 1|1.3|8|9|10|10U:20(qc=5)
REM Fe 3|2.2|2.0|1.0|8|9|10|40:41:32(qc=5)
REM 
CELL 1.54180    9.64776    5.95948    5.95948  103.58940   90.00000   90.00000
LATT -1
SFAC Li O  S  Fe 
Li     1  0.1576050000000 -0.0770570000000  0.1704960000000 1.0  -0.00
Li     1  0.1576050000000  0.0770570000000 -0.1704960000000 1.0  -0.00
Li     1 -0.1576050000000  0.1704960000000 -0.0770570000000 1.0  -0.00
Li     1 -0.1576050000000 -0.1704960000000  0.0770570000000 1.0  -0.00
Li     1 -0.5000000000000 -0.2035490000000 -0.2035490000000 1.0   0.00
Li     1 -0.5000000000000  0.2035490000000  0.2035490000000 1.0   0.00
O      2  0.2467030000000 -0.2649410000000  0.3193340000000 1.0  -0.16
O      2  0.2467030000000  0.2649410000000 -0.3193340000000 1.0  -0.16
O      2 -0.2467030000000  0.3193340000000 -0.2649410000000 1.0  -0.16
O      2 -0.2467030000000 -0.3193340000000  0.2649410000000 1.0  -0.16
O      2 -0.3108010000000 -0.2470700000000 -0.1544160000000 1.0  -0.17
O      2 -0.3108010000000  0.2470700000000  0.1544160000000 1.0  -0.17
O      2  0.3108010000000 -0.1544160000000 -0.2470700000000 1.0  -0.17
O      2  0.3108010000000  0.1544160000000  0.2470700000000 1.0  -0.17
O      2 -0.5084500000000  0.5000000000000  0.0000000000000 1.0  -0.41
O      2  0.5084500000000  0.0000000000000  0.5000000000000 1.0  -0.41
S      3  0.0000000000000  0.2488290000000  0.2488290000000 1.0  -0.12
S      3  0.0000000000000 -0.2488290000000 -0.2488290000000 1.0  -0.12
Fe     4  0.2155070000000 -0.4311100000000 -0.2996180000000 1.0  -3.16
Fe     4  0.2155070000000  0.4311100000000  0.2996180000000 1.0  -3.16
Fe     4 -0.2155070000000 -0.2996180000000 -0.4311100000000 1.0  -3.16
Fe     4 -0.2155070000000  0.2996180000000  0.4311100000000 1.0  -3.16
Fe     4  0.3376440000000  0.0000000000000 -0.5000000000000 1.0  -1.60
Fe     4 -0.3376440000000 -0.5000000000000  0.0000000000000 1.0  -1.60
END
