TITL LFSO-Li5FeS3O-200910-112653-b6b3a1 -0.0715 412.797642 -6.42531021E+003 6.05943 6.59911 20 (Cc) n - 1
REM
REM Run started: Thu, 10 Sep 2020 21:20:15 +0100 in /lustre/scratch/uccabz1/launch_tmp/launcher_2020-09-10-10-26-51-720706
REM CASTEP 20.1 from code version af48c487+ pr-geom-scf-spinfix Tue Jun 2 15:39:59 2020 +0100
REM Functional Perdew Burke Ernzerhof Relativity Koelling-Harmon Dispersion off
REM Cut-off 340.0000 eV Grid scale 1.7500 Gmax 16.5316 1/A FBSC none
REM MP grid 3 2 2 Offset 0.000 0.000 0.000 No. kpts 5 Spacing 0.07
REM Total runtime: 39495.5 s
REM Overall efficiency: 88.5 %
REM
REM
REM
REM compiler GCC version 4.9.2
REM options -cpp -iprefix /lustre/shared/ucl/apps/gcc/4.9.2/bin/../lib/gcc/x86_64-unknown-linux-gnu/4.9.2/ -mtune=corei7 -march=x86-64 -g -Og
REM COMMAND_LINE
REM seed 917391854 1802702686 -340878949 544164534 952763138 988736198 1493227586 -2041895431 144434828 27868546 -1571882714 -1435562172
REM
REM S 3|1.8|5|6|7|30:31:32(qc=5)
REM O 2|1.5|12|13|15|20:21(qc=5)
REM Li 1|1.3|8|9|10|10U:20(qc=5)
REM Fe 3|2.2|2.0|1.0|8|9|10|40:41:32(qc=5)
REM 
CELL 1.54180    8.53723    7.26708    7.26708   69.69927   79.75407   79.75407
LATT -1
SFAC Li O  S  Fe 
Li     1 -0.3801690000000 -0.3917710000000  0.0568520000000 1.0   0.04
Li     1  0.1198310000000  0.0568520000000 -0.3917710000000 1.0   0.04
Li     1  0.3128770000000  0.1343400000000  0.2029970000000 1.0  -0.01
Li     1 -0.1871230000000  0.2029970000000  0.1343400000000 1.0  -0.01
Li     1  0.3450820000000 -0.3785890000000 -0.1473060000000 1.0  -0.03
Li     1 -0.1549180000000 -0.1473060000000 -0.3785890000000 1.0  -0.03
Li     1 -0.2606160000000  0.4381250000000 -0.2670760000000 1.0  -0.00
Li     1  0.2393840000000 -0.2670760000000  0.4381250000000 1.0  -0.00
Li     1  0.3537970000000  0.2846150000000 -0.2435020000000 1.0   0.03
Li     1 -0.1462030000000 -0.2435020000000  0.2846150000000 1.0   0.03
O      2 -0.2607250000000 -0.3171580000000 -0.4669410000000 1.0   0.19
O      2  0.2392750000000 -0.4669410000000 -0.3171580000000 1.0   0.19
S      3 -0.1064050000000  0.6975370000000 -0.0328280000000 1.0   0.11
S      3  0.3935950000000 -0.0328280000000  0.6975370000000 1.0   0.11
S      3 -0.0119900000000  0.2386550000000 -0.1797590000000 1.0   0.14
S      3 -0.5119900000000 -0.1797590000000  0.2386550000000 1.0   0.14
S      3  0.5255590000000  0.3472700000000  0.0136800000000 1.0   0.01
S      3  0.0255590000000  0.0136800000000  0.3472700000000 1.0   0.01
Fe     4 -0.4497700000000 -0.1795890000000  0.5097170000000 1.0   2.57
Fe     4  0.0502300000000  0.5097170000000 -0.1795890000000 1.0   2.57
END
