TITL LFSO-Li4Fe3SO4-200928-062318-e63c95 -0.0402 191.317040 -5.44638667E+003 12.0006 12.1304 12 (R3) n - 1
REM
REM Run started: Mon, 28 Sep 2020 07:48:30 +0100 in /scratch/scratch/uccabz1/launch_tmp/launcher_2020-09-28-05-23-17-150521
REM CASTEP 19.11| from code version Version unavailable
REM Functional Perdew Burke Ernzerhof Relativity Koelling-Harmon Dispersion off
REM Cut-off 340.0000 eV Grid scale 1.7500 Gmax 16.5316 1/A FBSC none
REM MP grid 3 3 3 Offset 0.000 0.000 0.000 No. kpts 6 Spacing 0.07
REM Total runtime: 5161.52 s
REM Overall efficiency: 93.75 %
REM
REM
REM
REM compiler GCC version 4.9.2
REM options -cpp -iprefix /scratch/UCL/applications/gcc/4.9.2/bin/../lib/gcc/x86_64-unknown-linux-gnu/4.9.2/ -mtune=corei7 -march=x86-64 -g -O2
REM COMMAND_LINE
REM seed 1022453329 -201740186 -1402919724 -1960599427 -486113453 -1076241628 1332232015 -177598224 -1420127511 -1824862849 2000373236 -1303171519
REM
REM S 3|1.8|5|6|7|30:31:32(qc=5)
REM O 2|1.5|12|13|15|20:21(qc=5)
REM Li 1|1.3|8|9|10|10U:20(qc=5)
REM Fe 3|2.2|2.0|1.0|8|9|10|40:41:32(qc=5)
REM 
CELL 1.54180    6.78574    6.78574    6.78574   54.25419   54.25419   54.25419
LATT -1
SFAC Li O  S  Fe 
Li     1  0.1578270000000 -0.4024610000000  0.1178160000000 1.0   0.00
Li     1  0.1178160000000  0.1578270000000 -0.4024610000000 1.0   0.00
Li     1 -0.4024610000000  0.1178160000000  0.1578270000000 1.0   0.00
Li     1  0.4197890000000  0.4197890000000  0.4197890000000 1.0  -0.05
O      2 -0.2645300000000  0.2205660000000  0.2394350000000 1.0   0.32
O      2  0.2394350000000 -0.2645300000000  0.2205660000000 1.0   0.32
O      2  0.2205660000000  0.2394350000000 -0.2645300000000 1.0   0.32
O      2  0.2277730000000  0.2277730000000  0.2277730000000 1.0   0.26
S      3 -0.1381730000000 -0.1381730000000 -0.1381730000000 1.0   0.09
Fe     4  0.0022500000000 -0.0134510000000  0.3920290000000 1.0   3.58
Fe     4  0.3920290000000  0.0022500000000 -0.0134510000000 1.0   3.58
Fe     4 -0.0134510000000  0.3920290000000  0.0022500000000 1.0   3.58
END
