TITL LFSO-Li6FeSO3-200909-234308-a3cdc8 0.0454 287.099804 -7.36082410E+003 8.00000 8.16723 22 (C2221) n - 1
REM
REM Run started: Thu, 10 Sep 2020 02:11:42 +0100 in /lustre/scratch/uccabz1/launch_tmp/launcher_2020-09-09-22-43-07-347242
REM CASTEP 20.1 from code version af48c487+ pr-geom-scf-spinfix Tue Jun 2 15:39:59 2020 +0100
REM Functional Perdew Burke Ernzerhof Relativity Koelling-Harmon Dispersion off
REM Cut-off 340.0000 eV Grid scale 1.7500 Gmax 16.5316 1/A FBSC none
REM MP grid 3 3 3 Offset 0.000 0.000 0.000 No. kpts 8 Spacing 0.07
REM Total runtime: 11753.5 s
REM Overall efficiency: 97.5714 %
REM
REM
REM
REM compiler GCC version 4.9.2
REM options -cpp -iprefix /lustre/shared/ucl/apps/gcc/4.9.2/bin/../lib/gcc/x86_64-unknown-linux-gnu/4.9.2/ -mtune=corei7 -march=x86-64 -g -Og
REM COMMAND_LINE
REM seed -1974005692 -1298937737 2115665531 -1425679795 -730261333 1007406326 123673294 222545480 -996618202 -1692183008 2136123120 -2041242976
REM
REM S 3|1.8|5|6|7|30:31:32(qc=5)
REM O 2|1.5|12|13|15|20:21(qc=5)
REM Li 1|1.3|8|9|10|10U:20(qc=5)
REM Fe 3|2.2|2.0|1.0|8|9|10|40:41:32(qc=5)
REM 
CELL 1.54180    5.65083    8.39754    7.36440  124.76027   90.00000   90.00000
LATT -1
SFAC Li O  S  Fe 
Li     1  0.5906910000000  0.2483590000000  0.2482150000000 1.0  -0.02
Li     1  0.0906910000000 -0.2483590000000 -0.2482150000000 1.0  -0.02
Li     1 -0.0906910000000 -0.0001440000000  0.2482150000000 1.0  -0.02
Li     1 -0.5906910000000  0.0001450000000 -0.2482150000000 1.0  -0.02
Li     1 -0.5505620000000 -0.3792890000000 -0.4244340000000 1.0   0.00
Li     1 -0.0505620000000  0.3792890000000  0.4244340000000 1.0   0.00
Li     1  0.0505620000000 -0.0451450000000 -0.4244340000000 1.0   0.00
Li     1  0.5505620000000  0.0451450000000  0.4244340000000 1.0   0.00
Li     1  0.5172330000000 -0.3488120000000  0.2788440000000 1.0  -0.01
Li     1  0.0172330000000  0.3488120000000 -0.2788430000000 1.0  -0.01
Li     1 -0.0172330000000 -0.3723450000000  0.2788440000000 1.0  -0.01
Li     1 -0.5172330000000  0.3723450000000 -0.2788430000000 1.0  -0.01
O      2 -0.2957510000000 -0.1957080000000  0.2223590000000 1.0   0.18
O      2  0.2042490000000  0.1957080000000 -0.2223590000000 1.0   0.18
O      2 -0.2042490000000  0.4180670000000  0.2223590000000 1.0   0.18
O      2  0.2957510000000 -0.4180670000000 -0.2223590000000 1.0   0.18
O      2  0.2500000000000 -0.2575060000000 -0.5150120000000 1.0   0.01
O      2 -0.2500000000000  0.2575060000000  0.5150120000000 1.0   0.01
S      3  0.2500000000000  0.0869360000000  0.1738720000000 1.0   0.14
S      3 -0.2500000000000 -0.0869360000000 -0.1738720000000 1.0   0.14
Fe     4 -0.0000000000000  0.2192210000000  0.0000000000000 1.0   3.54
Fe     4 -0.5000000000000 -0.2192210000000  0.0000000000000 1.0   3.54
END
