TITL LFSO-Li4Fe2SO4-200910-135522-9144a7 -0.0081 136.707384 -4.58329068E+003 6.00014 6.21743 11 (C2) n - 1
REM
REM Run started: Thu, 10 Sep 2020 15:03:58 +0100 in /lustre/scratch/uccabz1/launch_tmp/launcher_2020-09-10-12-55-20-819147
REM CASTEP 20.1 from code version af48c487+ pr-geom-scf-spinfix Tue Jun 2 15:39:59 2020 +0100
REM Functional Perdew Burke Ernzerhof Relativity Koelling-Harmon Dispersion off
REM Cut-off 340.0000 eV Grid scale 1.7500 Gmax 16.5316 1/A FBSC none
REM MP grid 3 4 4 Offset 0.000 0.000 0.000 No. kpts 16 Spacing 0.07
REM Total runtime: 4329.38 s
REM Overall efficiency: 83.5714 %
REM
REM
REM
REM compiler GCC version 4.9.2
REM options -cpp -iprefix /lustre/shared/ucl/apps/gcc/4.9.2/bin/../lib/gcc/x86_64-unknown-linux-gnu/4.9.2/ -mtune=corei7 -march=x86-64 -g -Og
REM COMMAND_LINE
REM seed -612986209 587047845 512488903 -2108293547 1521530676 1294609467 459886578 -37047558 1410085276 625930782 -1826557719 675217279
REM
REM S 3|1.8|5|6|7|30:31:32(qc=5)
REM O 2|1.5|12|13|15|20:21(qc=5)
REM Li 1|1.3|8|9|10|10U:20(qc=5)
REM Fe 3|2.2|2.0|1.0|8|9|10|40:41:32(qc=5)
REM 
CELL 1.54180    5.35341    5.95656    5.95656   52.40465   67.96252   67.96252
LATT -1
SFAC Li O  S  Fe 
Li     1 -0.0085070000000 -0.4590720000000 -0.0640620000000 1.0   0.01
Li     1  0.0085070000000  0.0640620000000  0.4590720000000 1.0   0.01
Li     1 -0.3776100000000  0.1657570000000  0.2371720000000 1.0  -0.01
Li     1  0.3776100000000 -0.2371720000000 -0.1657570000000 1.0  -0.01
O      2  0.2659660000000 -0.5902180000000  0.1932230000000 1.0   0.22
O      2 -0.2659660000000 -0.1932230000000  0.5902180000000 1.0   0.22
O      2 -0.3102600000000  0.4327740000000 -0.6849830000000 1.0   0.16
O      2  0.3102600000000  0.6849830000000 -0.4327740000000 1.0   0.16
S      3  0.0000000000000  0.1826990000000 -0.1826990000000 1.0   0.09
Fe     4 -0.2967030000000 -0.4336460000000 -0.4758550000000 1.0   2.57
Fe     4  0.2967030000000  0.4758550000000  0.4336460000000 1.0   2.57
END
