TITL LFSO-Li6FeS3O-200910-011925-fd5dbe 0.0157 239.581741 -3.40863170E+003 2.00001 2.48975 11 (Pmm2) n - 1
REM
REM Run started: Thu, 10 Sep 2020 01:56:51 +0100 in /lustre/scratch/uccabz1/launch_tmp/launcher_2020-09-10-00-19-22-769919
REM CASTEP 20.1 from code version af48c487+ pr-geom-scf-spinfix Tue Jun 2 15:39:59 2020 +0100
REM Functional Perdew Burke Ernzerhof Relativity Koelling-Harmon Dispersion off
REM Cut-off 340.0000 eV Grid scale 1.7500 Gmax 16.5316 1/A FBSC none
REM MP grid 4 2 2 Offset 0.000 0.000 0.000 No. kpts 2 Spacing 0.07
REM Total runtime: 2303.57 s
REM Overall efficiency: 88.4286 %
REM
REM
REM
REM compiler GCC version 4.9.2
REM options -cpp -iprefix /lustre/shared/ucl/apps/gcc/4.9.2/bin/../lib/gcc/x86_64-unknown-linux-gnu/4.9.2/ -mtune=corei7 -march=x86-64 -g -Og
REM COMMAND_LINE
REM seed 165382413 1713962816 559928865 1137000494 -469987534 2124605727 319808400 -2105409689 -957314907 -89973354 -983078912 488566062
REM
REM S 3|1.8|5|6|7|30:31:32(qc=5)
REM O 2|1.5|12|13|15|20:21(qc=5)
REM Li 1|1.3|8|9|10|10U:20(qc=5)
REM Fe 3|2.2|2.0|1.0|8|9|10|40:41:32(qc=5)
REM 
CELL 1.54180    4.31339    7.24032    7.67144   90.00000   90.00000   90.00000
LATT -1
SFAC Li O  S  Fe 
Li     1  0.3498900000000 -0.2206070000000 -0.3466950000000 1.0  -0.05
Li     1  0.3498900000000  0.2206070000000  0.3466950000000 1.0  -0.05
Li     1  0.3498900000000  0.2206070000000 -0.3466950000000 1.0  -0.05
Li     1  0.3498900000000 -0.2206070000000  0.3466950000000 1.0  -0.05
Li     1 -0.2339610000000  0.0000000000000  0.3038530000000 1.0  -0.04
Li     1 -0.2339610000000  0.0000000000000 -0.3038530000000 1.0  -0.04
O      2 -0.5347180000000  0.0000000000000  0.5000000000000 1.0  -0.00
S      3  0.2450860000000  0.0000000000000 -0.1373740000000 1.0  -0.00
S      3  0.2450860000000  0.0000000000000  0.1373740000000 1.0  -0.00
S      3  0.2192320000000  0.5000000000000 -0.5000000000000 1.0   0.05
Fe     4 -0.2781600000000 -0.5000000000000  0.5000000000000 1.0   2.23
END
