TITL LFSO-Li3Fe3S2O4-200928-165212-4d69b4 0.4353 358.811713 -1.10991196E+004 -18.0007 18.7462 24 (Cc) n - 1
REM
REM Run started: Tue, 29 Sep 2020 10:20:11 +0100 in /lustre/scratch/uccabz1/launch_tmp/launcher_2020-09-29-08-19-32-721317
REM CASTEP 20.1 from code version af48c487+ pr-geom-scf-spinfix Tue Jun 2 15:39:59 2020 +0100
REM Functional Perdew Burke Ernzerhof Relativity Koelling-Harmon Dispersion off
REM Cut-off 340.0000 eV Grid scale 1.7500 Gmax 16.5316 1/A FBSC none
REM MP grid 4 3 2 Offset 0.000 0.000 0.000 No. kpts 12 Spacing 0.07
REM Total runtime: 60428.1 s
REM Overall efficiency: 93.8182 %
REM
REM
REM
REM compiler GCC version 4.9.2
REM options -cpp -iprefix /lustre/shared/ucl/apps/gcc/4.9.2/bin/../lib/gcc/x86_64-unknown-linux-gnu/4.9.2/ -mtune=corei7 -march=x86-64 -g -Og
REM COMMAND_LINE
REM seed -1525641958 837517368 879194741 -416267653 -973158261 -1632409043 -698657326 194171448 -617419422 -132712002 -2022089530 -1754982583
REM
REM S 3|1.8|5|6|7|30:31:32(qc=5)
REM O 2|1.5|12|13|15|20:21(qc=5)
REM Li 1|1.3|8|9|10|10U:20(qc=5)
REM Fe 3|2.2|2.0|1.0|8|9|10|40:41:32(qc=5)
REM 
CELL 1.54180    5.43274    7.52902   10.51592   80.71471   63.43463   68.85150
LATT -1
SFAC Li O  S  Fe 
Li     1  0.2205480000000  0.6598040000000 -0.3511230000000 1.0   0.05
Li     1 -0.1196480000000 -0.6598060000000  0.1488770000000 1.0   0.05
Li     1 -0.1564060000000  0.5097730000000 -0.5222070000000 1.0  -0.01
Li     1  0.3533670000000 -0.5097750000000 -0.0222070000000 1.0  -0.01
Li     1 -0.3382690000000 -0.3320660000000  0.2869730000000 1.0  -0.04
Li     1 -0.6703340000000  0.3320640000000 -0.2130270000000 1.0  -0.04
O      2 -0.3562470000000  0.1781150000000  0.0657960000000 1.0  -0.15
O      2 -0.1781300000000 -0.1781170000000 -0.4342040000000 1.0  -0.15
O      2  0.3739100000000 -0.4231480000000 -0.2088960000000 1.0  -0.25
O      2 -0.0492370000000  0.4231460000000  0.2911040000000 1.0  -0.25
O      2  0.4321680000000 -0.1153060000000 -0.1054880000000 1.0  -0.21
O      2  0.3168630000000  0.1153040000000 -0.6054880000000 1.0  -0.21
O      2  0.2041410000000  0.2261640000000 -0.0183460000000 1.0  -0.14
O      2 -0.5696940000000 -0.2261660000000  0.4816540000000 1.0  -0.14
S      3 -0.3396620000000  0.2074390000000  0.5307100000000 1.0  -0.12
S      3 -0.1322220000000 -0.2074410000000  0.0307100000000 1.0  -0.12
S      3  0.4157490000000 -0.4367510000000  0.1836950000000 1.0  -0.13
S      3 -0.0210010000000  0.4367490000000 -0.3163050000000 1.0  -0.13
Fe     4  0.5267960000000  0.0256250000000 -0.0104820000000 1.0  -2.54
Fe     4 -0.4475780000000 -0.0256270000000  0.4895180000000 1.0  -2.54
Fe     4  0.0443420000000  0.0296320000000 -0.0150510000000 1.0  -2.64
Fe     4  0.0739750000000 -0.0296340000000  0.4849490000000 1.0  -2.64
Fe     4 -0.3776660000000 -0.3025840000000 -0.2630020000000 1.0  -2.82
Fe     4  0.3197510000000  0.3025820000000  0.2369980000000 1.0  -2.82
END
