TITL LFSO-Li2Fe3SO3-200912-095047-45d800 -0.0392 246.578764 -9.21603185E+003 19.9271 20.4956 18 (Cc) n - 1
REM
REM Run started: Sat, 12 Sep 2020 15:24:50 +0100 in /lustre/scratch/uccabz1/launch_tmp/launcher_2020-09-12-10-02-14-629595
REM CASTEP 20.1 from code version af48c487+ pr-geom-scf-spinfix Tue Jun 2 15:39:59 2020 +0100
REM Functional Perdew Burke Ernzerhof Relativity Koelling-Harmon Dispersion off
REM Cut-off 340.0000 eV Grid scale 1.7500 Gmax 16.5316 1/A FBSC none
REM MP grid 3 3 3 Offset 0.000 0.000 0.000 No. kpts 10 Spacing 0.07
REM Total runtime: 18578.9 s
REM Overall efficiency: 80.6 %
REM
REM
REM
REM compiler GCC version 4.9.2
REM options -cpp -iprefix /lustre/shared/ucl/apps/gcc/4.9.2/bin/../lib/gcc/x86_64-unknown-linux-gnu/4.9.2/ -mtune=corei7 -march=x86-64 -g -Og
REM COMMAND_LINE
REM seed -1942578989 1258033822 -455634101 261264192 699086706 -1367104197 542848473 -1059006662 1543735850 1375482910 1256421137 -3798616
REM
REM S 3|1.8|5|6|7|30:31:32(qc=5)
REM O 2|1.5|12|13|15|20:21(qc=5)
REM Li 1|1.3|8|9|10|10U:20(qc=5)
REM Fe 3|2.2|2.0|1.0|8|9|10|40:41:32(qc=5)
REM 
CELL 1.54180    6.05712    6.05712    6.80752   86.62689   86.62689   97.59471
LATT -1
SFAC Li O  S  Fe 
Li     1  0.1697280000000  0.3883800000000 -0.2368650000000 1.0  -0.04
Li     1 -0.1116200000000 -0.3302720000000  0.2631350000000 1.0  -0.04
Li     1 -0.2670280000000 -0.4542970000000 -0.0684110000000 1.0   0.00
Li     1  0.0457030000000  0.2329720000000  0.4315890000000 1.0   0.00
O      2  0.1723100000000 -0.1874560000000  0.2472630000000 1.0   0.37
O      2  0.3125440000000 -0.3276900000000 -0.2527370000000 1.0   0.37
O      2 -0.3223370000000 -0.2323790000000  0.0961570000000 1.0   0.24
O      2  0.2676210000000  0.1776630000000 -0.4038430000000 1.0   0.24
O      2  0.3123320000000  0.3293180000000  0.2143570000000 1.0   0.23
O      2 -0.1706820000000 -0.1876680000000 -0.2856430000000 1.0   0.23
S      3 -0.2491490000000  0.3029000000000 -0.3398700000000 1.0   0.11
S      3 -0.1971000000000  0.2508510000000  0.1601300000000 1.0   0.11
Fe     4 -0.4871010000000  0.2878510000000  0.4079590000000 1.0   2.27
Fe     4 -0.2121490000000  0.0128990000000 -0.0920410000000 1.0   2.27
Fe     4  0.1322940000000  0.0732320000000  0.1077180000000 1.0   3.34
Fe     4 -0.4267680000000 -0.3677060000000 -0.3922820000000 1.0   3.34
Fe     4  0.4184940000000 -0.3503200000000  0.2436840000000 1.0   3.45
Fe     4  0.1496800000000 -0.0815060000000 -0.2563160000000 1.0   3.45
END
