TITL LFSO-Li3Fe3S2O4-200928-171035-a4a74d 0.0348 436.499552 -1.10985176E+004 19.9913 20.3210 24 (R3) n - 1
REM
REM Run started: Tue, 29 Sep 2020 14:56:15 +0100 in /lustre/scratch/uccabz1/launch_tmp/launcher_2020-09-28-16-10-33-752254
REM CASTEP 20.1 from code version af48c487+ pr-geom-scf-spinfix Tue Jun 2 15:39:59 2020 +0100
REM Functional Perdew Burke Ernzerhof Relativity Koelling-Harmon Dispersion off
REM Cut-off 340.0000 eV Grid scale 1.7500 Gmax 16.5316 1/A FBSC none
REM MP grid 3 3 3 Offset 0.000 0.000 0.000 No. kpts 6 Spacing 0.07
REM Total runtime: 79366 s
REM Overall efficiency: 98.4615 %
REM
REM
REM
REM compiler GCC version 4.9.2
REM options -cpp -iprefix /lustre/shared/ucl/apps/gcc/4.9.2/bin/../lib/gcc/x86_64-unknown-linux-gnu/4.9.2/ -mtune=corei7 -march=x86-64 -g -Og
REM COMMAND_LINE
REM seed 1820584612 -1520279493 -1837674069 -1472303794 -1987326573 -830340722 2009118771 1984885220 426873081 1879077083 -1543042004 -879914791
REM
REM S 3|1.8|5|6|7|30:31:32(qc=5)
REM O 2|1.5|12|13|15|20:21(qc=5)
REM Li 1|1.3|8|9|10|10U:20(qc=5)
REM Fe 3|2.2|2.0|1.0|8|9|10|40:41:32(qc=5)
REM 
CELL 1.54180    8.54445    8.54445    8.54445   59.54120   59.54120   59.54120
LATT -1
SFAC Li O  S  Fe 
Li     1 -0.1031130000000 -0.2853640000000  0.4830680000000 1.0   0.02
Li     1  0.4830680000000 -0.1031130000000 -0.2853640000000 1.0   0.02
Li     1 -0.2853640000000  0.4830680000000 -0.1031130000000 1.0   0.02
Li     1 -0.1890390000000  0.1808420000000 -0.3034340000000 1.0  -0.02
Li     1 -0.3034340000000 -0.1890390000000  0.1808420000000 1.0  -0.02
Li     1  0.1808420000000 -0.3034340000000 -0.1890390000000 1.0  -0.02
O      2 -0.3333970000000  0.3195450000000 -0.1375980000000 1.0   0.40
O      2 -0.1375980000000 -0.3333970000000  0.3195450000000 1.0   0.40
O      2  0.3195450000000 -0.1375980000000 -0.3333970000000 1.0   0.40
O      2  0.1946290000000  0.4660390000000  0.0277400000000 1.0   0.28
O      2  0.0277400000000  0.1946290000000  0.4660390000000 1.0   0.28
O      2  0.4660390000000  0.0277400000000  0.1946290000000 1.0   0.28
O      2  0.0806630000000  0.0806630000000  0.0806630000000 1.0   0.08
O      2 -0.2642520000000 -0.2642520000000 -0.2642520000000 1.0   0.01
S      3 -0.2150330000000  0.3923530000000  0.2006330000000 1.0   0.18
S      3  0.2006330000000 -0.2150330000000  0.3923530000000 1.0   0.18
S      3  0.3923530000000  0.2006330000000 -0.2150330000000 1.0   0.18
S      3 -0.1826860000000 -0.1826860000000 -0.1826860000000 1.0   0.11
Fe     4 -0.0019010000000  0.1020380000000  0.3219040000000 1.0   2.28
Fe     4  0.3219040000000 -0.0019010000000  0.1020380000000 1.0   2.28
Fe     4  0.1020380000000  0.3219040000000 -0.0019010000000 1.0   2.28
Fe     4  0.2701180000000 -0.0237790000000  0.4501960000000 1.0   3.46
Fe     4  0.4501960000000  0.2701180000000 -0.0237790000000 1.0   3.46
Fe     4 -0.0237790000000  0.4501960000000  0.2701180000000 1.0   3.46
END
