TITL LFSO-Li2Fe2S2O-200913-125840-f75810 0.0596 281.834370 -6.34506479E+003 11.4234 11.7404 14 (F222) n - 1
REM
REM Run started: Sun, 13 Sep 2020 16:32:15 +0100 in /lustre/scratch/uccabz1/launch_tmp/launcher_2020-09-13-11-58-38-833184
REM CASTEP 20.1 from code version af48c487+ pr-geom-scf-spinfix Tue Jun 2 15:39:59 2020 +0100
REM Functional Perdew Burke Ernzerhof Relativity Koelling-Harmon Dispersion off
REM Cut-off 340.0000 eV Grid scale 1.7500 Gmax 16.5316 1/A FBSC none
REM MP grid 3 3 2 Offset 0.000 0.000 0.000 No. kpts 6 Spacing 0.07
REM Total runtime: 12923.3 s
REM Overall efficiency: 96.5 %
REM
REM
REM
REM compiler GCC version 4.9.2
REM options -cpp -iprefix /lustre/shared/ucl/apps/gcc/4.9.2/bin/../lib/gcc/x86_64-unknown-linux-gnu/4.9.2/ -mtune=corei7 -march=x86-64 -g -Og
REM COMMAND_LINE
REM seed -149667320 -1094034839 1918813376 -336748506 -1335612688 -2075005619 -226285674 336893886 -684451808 -1962718630 1329659057 -89446840
REM
REM S 3|1.8|5|6|7|30:31:32(qc=5)
REM O 2|1.5|12|13|15|20:21(qc=5)
REM Li 1|1.3|8|9|10|10U:20(qc=5)
REM Fe 3|2.2|2.0|1.0|8|9|10|40:41:32(qc=5)
REM 
CELL 1.54180    6.89950    6.89950    8.08872   99.48214   99.48214  127.85961
LATT -1
SFAC Li O  S  Fe 
Li     1 -0.3580810000000 -0.0452230000000 -0.3620020000000 1.0   0.00
Li     1 -0.0039210000000 -0.3167800000000 -0.3620020000000 1.0   0.00
Li     1  0.0452230000000  0.3580810000000  0.3620020000000 1.0   0.00
Li     1  0.3167800000000  0.0039210000000  0.3620020000000 1.0   0.00
O      2  0.1434080000000  0.1434080000000  0.2868170000000 1.0   0.24
O      2 -0.1434080000000 -0.1434080000000 -0.2868170000000 1.0   0.24
S      3  0.4934700000000 -0.2143510000000  0.3061210000000 1.0   0.18
S      3 -0.1873490000000 -0.4795290000000  0.3061210000000 1.0   0.18
S      3  0.2143510000000 -0.4934700000000 -0.3061210000000 1.0   0.18
S      3  0.4795290000000  0.1873490000000 -0.3061210000000 1.0   0.18
Fe     4  0.1238530000000  0.1343400000000 -0.3347540000000 1.0   2.55
Fe     4 -0.4586070000000  0.5309050000000 -0.3347540000000 1.0   2.55
Fe     4 -0.1343400000000 -0.1238530000000  0.3347540000000 1.0   2.55
Fe     4 -0.5309050000000  0.4586070000000  0.3347540000000 1.0   2.55
END
