TITL LFSO-Li5FeS3O-200910-103053-c62c48 0.6069 508.408214 -6.42076786E+003 -1.32804 5.97995 20 (P3) n - 1
REM
REM Run started: Sat, 12 Sep 2020 11:21:40 +0100 in /lustre/scratch/uccabz1/launch_tmp/launcher_2020-09-12-09-29-10-989739
REM CASTEP 20.1 from code version af48c487+ pr-geom-scf-spinfix Tue Jun 2 15:39:59 2020 +0100
REM Functional Perdew Burke Ernzerhof Relativity Koelling-Harmon Dispersion off
REM Cut-off 340.0000 eV Grid scale 1.7500 Gmax 16.5316 1/A FBSC none
REM MP grid 3 3 2 Offset 0.000 0.000 0.000 No. kpts 5 Spacing 0.07
REM Total runtime: 182840 s
REM Overall efficiency: 69.5833 %
REM
REM
REM
REM compiler GCC version 4.9.2
REM options -cpp -iprefix /lustre/shared/ucl/apps/gcc/4.9.2/bin/../lib/gcc/x86_64-unknown-linux-gnu/4.9.2/ -mtune=corei7 -march=x86-64 -g -Og
REM COMMAND_LINE
REM seed -94718114 -1876919004 -1681655637 -491713291 -1398054828 -2027534947 1367937004 441619769 -1828689025 -1201876752 1984466041 -1080877957
REM
REM S 3|1.8|5|6|7|30:31:32(qc=5)
REM O 2|1.5|12|13|15|20:21(qc=5)
REM Li 1|1.3|8|9|10|10U:20(qc=5)
REM Fe 3|2.2|2.0|1.0|8|9|10|40:41:32(qc=5)
REM 
CELL 1.54180    6.89987    6.89987   12.33103   90.00000   90.00000  120.00000
LATT -1
SFAC Li O  S  Fe 
Li     1  0.2058040000000  0.0047490000000 -0.4207080000000 1.0   0.00
Li     1 -0.0047490000000  0.2010550000000 -0.4207080000000 1.0   0.00
Li     1 -0.2010550000000 -0.2058040000000 -0.4207080000000 1.0   0.00
Li     1  0.6612370000000 -0.3637000000000  0.4106900000000 1.0   0.00
Li     1  0.3637000000000  0.0249370000000  0.4106900000000 1.0   0.00
Li     1 -0.0249370000000 -0.6612370000000  0.4106900000000 1.0   0.00
Li     1  0.1834570000000  0.2111350000000 -0.2106140000000 1.0  -0.05
Li     1 -0.2111350000000 -0.0276780000000 -0.2106140000000 1.0  -0.05
Li     1  0.0276780000000 -0.1834570000000 -0.2106140000000 1.0  -0.05
Li     1  0.3333330000000 -0.3333330000000  0.2408540000000 1.0  -0.05
O      2  0.0000000000000 -0.0000000000000 -0.1136030000000 1.0  -0.26
O      2  0.0000000000000 -0.0000000000000 -0.3162550000000 1.0  -0.00
S      3  0.0984560000000 -0.2423660000000  0.0750340000000 1.0  -0.02
S      3  0.2423660000000  0.3408220000000  0.0750340000000 1.0  -0.02
S      3 -0.3408220000000 -0.0984560000000  0.0750340000000 1.0  -0.02
S      3 -0.3349460000000 -0.0140140000000  0.4701600000000 1.0  -0.00
S      3  0.0140140000000 -0.3209320000000  0.4701600000000 1.0  -0.00
S      3  0.3209320000000  0.3349460000000  0.4701600000000 1.0  -0.00
Fe     4  0.3333330000000 -0.3333330000000  0.0384310000000 1.0   2.06
Fe     4  0.0000000000000 -0.0000000000000  0.0267220000000 1.0  -2.88
END
