TITL LFSO-Li4Fe2SO3-200910-201043-cf8701 0.0522 268.898926 -8.28884783E+003 -15.4927 15.8104 20 (P3) n - 1
REM
REM Run started: Fri, 11 Sep 2020 04:23:02 +0100 in /lustre/scratch/uccabz1/launch_tmp/launcher_2020-09-10-19-10-41-205266
REM CASTEP 20.1 from code version af48c487+ pr-geom-scf-spinfix Tue Jun 2 15:39:59 2020 +0100
REM Functional Perdew Burke Ernzerhof Relativity Koelling-Harmon Dispersion off
REM Cut-off 340.0000 eV Grid scale 1.7500 Gmax 16.5316 1/A FBSC none
REM MP grid 3 3 2 Offset 0.000 0.000 0.000 No. kpts 5 Spacing 0.07
REM Total runtime: 29642.5 s
REM Overall efficiency: 78.2222 %
REM
REM
REM
REM compiler GCC version 4.9.2
REM options -cpp -iprefix /lustre/shared/ucl/apps/gcc/4.9.2/bin/../lib/gcc/x86_64-unknown-linux-gnu/4.9.2/ -mtune=corei7 -march=x86-64 -g -Og
REM COMMAND_LINE
REM seed -1832434156 -1873946073 -1658527890 1339790581 201217877 1453532180 954237524 -76565787 -1196676544 1166579167 -705309481 558327182
REM
REM S 3|1.8|5|6|7|30:31:32(qc=5)
REM O 2|1.5|12|13|15|20:21(qc=5)
REM Li 1|1.3|8|9|10|10U:20(qc=5)
REM Fe 3|2.2|2.0|1.0|8|9|10|40:41:32(qc=5)
REM 
CELL 1.54180    6.35023    6.35023    7.69980   90.00000   90.00000  120.00000
LATT -1
SFAC Li O  S  Fe 
Li     1 -0.1902590000000 -0.3366940000000  0.0647890000000 1.0  -0.06
Li     1 -0.1464350000000  0.1902590000000  0.0647890000000 1.0  -0.06
Li     1  0.3366940000000  0.1464350000000  0.0647890000000 1.0  -0.06
Li     1 -0.4253800000000 -0.0071840000000  0.3446360000000 1.0   0.08
Li     1  0.4181950000000  0.4253800000000  0.3446360000000 1.0   0.08
Li     1  0.0071840000000 -0.4181950000000  0.3446360000000 1.0   0.08
Li     1  0.3333330000000 -0.3333330000000 -0.3489640000000 1.0   0.08
Li     1 -0.3333330000000  0.3333330000000 -0.2773180000000 1.0   0.09
O      2 -0.0215140000000 -0.4943790000000 -0.4121690000000 1.0  -0.27
O      2 -0.4728650000000  0.0215140000000 -0.4121690000000 1.0  -0.27
O      2  0.4943790000000  0.4728650000000 -0.4121690000000 1.0  -0.27
O      2  0.0020040000000 -0.4783620000000  0.1093750000000 1.0  -0.21
O      2 -0.4803650000000 -0.0020040000000  0.1093750000000 1.0  -0.21
O      2  0.4783620000000  0.4803650000000  0.1093750000000 1.0  -0.21
S      3  0.0000000000000 -0.0000000000000 -0.1654990000000 1.0  -0.31
S      3  0.0000000000000 -0.0000000000000  0.3536280000000 1.0  -0.31
Fe     4  0.2667760000000  0.0981910000000  0.5979470000000 1.0  -3.46
Fe     4 -0.1685850000000 -0.2667760000000  0.5979470000000 1.0  -3.46
Fe     4 -0.0981910000000  0.1685850000000  0.5979470000000 1.0  -3.46
Fe     4  0.3333330000000 -0.3333330000000  0.0884050000000 1.0  -3.30
END
