TITL LFSO-Li3Fe3S5O-200929-042138-a399ce -0.0281 217.836768 -5.14722938E+003 12.8213 12.8525 12 (R3) n - 1
REM
REM Run started: Tue, 29 Sep 2020 07:07:51 +0100 in /lustre/scratch/uccabz1/launch_tmp/launcher_2020-09-29-03-21-36-560849
REM CASTEP 20.1 from code version af48c487+ pr-geom-scf-spinfix Tue Jun 2 15:39:59 2020 +0100
REM Functional Perdew Burke Ernzerhof Relativity Koelling-Harmon Dispersion off
REM Cut-off 340.0000 eV Grid scale 1.7500 Gmax 16.5316 1/A FBSC none
REM MP grid 3 3 3 Offset 0.000 0.000 0.000 No. kpts 6 Spacing 0.07
REM Total runtime: 10053.9 s
REM Overall efficiency: 95.5 %
REM
REM
REM
REM compiler GCC version 4.9.2
REM options -cpp -iprefix /lustre/shared/ucl/apps/gcc/4.9.2/bin/../lib/gcc/x86_64-unknown-linux-gnu/4.9.2/ -mtune=corei7 -march=x86-64 -g -Og
REM COMMAND_LINE
REM seed -385017185 698716698 -930411534 1769406194 398577759 1935454499 -709866226 477069387 -900438229 191027267 -1493342269 1503424687
REM
REM S 3|1.8|5|6|7|30:31:32(qc=5)
REM O 2|1.5|12|13|15|20:21(qc=5)
REM Li 1|1.3|8|9|10|10U:20(qc=5)
REM Fe 3|2.2|2.0|1.0|8|9|10|40:41:32(qc=5)
REM 
CELL 1.54180    7.48398    7.48398    7.48398   48.80598   48.80598   48.80598
LATT -1
SFAC Li O  S  Fe 
Li     1  0.3151090000000 -0.0269030000000 -0.3139000000000 1.0   0.10
Li     1 -0.3139000000000  0.3151090000000 -0.0269030000000 1.0   0.10
Li     1 -0.0269030000000 -0.3139000000000  0.3151090000000 1.0   0.10
O      2  0.4601070000000  0.4601070000000  0.4601070000000 1.0   0.40
S      3 -0.0584270000000 -0.7303040000000  0.5745650000000 1.0   0.30
S      3  0.5745650000000 -0.0584270000000 -0.7303040000000 1.0   0.30
S      3 -0.7303040000000  0.5745650000000 -0.0584270000000 1.0   0.30
S      3  0.1008970000000  0.1008970000000  0.1008970000000 1.0   0.27
S      3 -0.2289070000000 -0.2289070000000 -0.2289070000000 1.0   0.28
Fe     4  0.4837510000000 -0.2081450000000  0.1830810000000 1.0   3.56
Fe     4  0.1830810000000  0.4837510000000 -0.2081450000000 1.0   3.56
Fe     4 -0.2081450000000  0.1830810000000  0.4837510000000 1.0   3.56
END
