TITL LFSO-Li3Fe3S5O-201002-134342-58a651 -0.0688 565.951628 -5.14499118E+003 9.08629 10.5870 12 (P3) n - 1
REM
REM Run started: Fri, 02 Oct 2020 19:05:37 +0100 in /lustre/scratch/uccabz1/launch_tmp/launcher_2020-10-02-12-43-38-267718
REM CASTEP 20.1 from code version af48c487+ pr-geom-scf-spinfix Tue Jun 2 15:39:59 2020 +0100
REM Functional Perdew Burke Ernzerhof Relativity Koelling-Harmon Dispersion off
REM Cut-off 340.0000 eV Grid scale 1.7500 Gmax 16.5316 1/A FBSC none
REM MP grid 3 3 1 Offset 0.000 0.000 0.000 No. kpts 3 Spacing 0.07
REM Total runtime: 19399.6 s
REM Overall efficiency: 79 %
REM
REM
REM
REM compiler GCC version 4.9.2
REM options -cpp -iprefix /lustre/shared/ucl/apps/gcc/4.9.2/bin/../lib/gcc/x86_64-unknown-linux-gnu/4.9.2/ -mtune=corei7 -march=x86-64 -g -Og
REM COMMAND_LINE
REM seed 400645779 -2143513235 -1919741955 -1999914456 -884637705 -1082829452 877521135 -1655718950 -1343205955 142871034 1780651423 -1683521564
REM
REM S 3|1.8|5|6|7|30:31:32(qc=5)
REM O 2|1.5|12|13|15|20:21(qc=5)
REM Li 1|1.3|8|9|10|10U:20(qc=5)
REM Fe 3|2.2|2.0|1.0|8|9|10|40:41:32(qc=5)
REM 
CELL 1.54180    6.60145    6.60145   14.99583   90.00000   90.00000  120.00000
LATT -1
SFAC Li O  S  Fe 
Li     1  0.3345760000000  0.3315760000000 -0.4364780000000 1.0   0.04
Li     1 -0.0030000000000 -0.3345760000000 -0.4364780000000 1.0   0.04
Li     1 -0.3315760000000  0.0030000000000 -0.4364780000000 1.0   0.04
O      2  0.3333330000000 -0.3333330000000  0.2144610000000 1.0  -0.34
S      3 -0.3376780000000 -0.3342140000000 -0.4895770000000 1.0   0.19
S      3  0.0034640000000  0.3376780000000 -0.4895770000000 1.0   0.19
S      3  0.3342140000000 -0.0034640000000 -0.4895770000000 1.0   0.19
S      3  0.3333330000000 -0.3333330000000  0.3163510000000 1.0  -0.29
S      3 -0.3333330000000  0.3333330000000  0.2659360000000 1.0   0.12
Fe     4  0.4919870000000  0.0820230000000  0.3788000000000 1.0   2.97
Fe     4 -0.4099630000000 -0.4919870000000  0.3788000000000 1.0   2.97
Fe     4 -0.0820230000000  0.4099630000000  0.3788000000000 1.0   2.97
END
