TITL LFSO-Li2Fe4S4O-200911-203453-8f911b -0.2592 301.051158 -1.10115941E+004 -0.128701 0.191088 22 (P3) n - 1
REM
REM Run started: Sun, 13 Sep 2020 23:22:37 +0100 in /lustre/scratch/uccabz1/launch_tmp/launcher_2020-09-12-06-23-53-212655
REM CASTEP 20.1 from code version af48c487+ pr-geom-scf-spinfix Tue Jun 2 15:39:59 2020 +0100
REM Functional Perdew Burke Ernzerhof Relativity Koelling-Harmon Dispersion off
REM Cut-off 340.0000 eV Grid scale 1.7500 Gmax 16.5316 1/A FBSC none
REM MP grid 3 3 2 Offset 0.000 0.000 0.000 No. kpts 5 Spacing 0.07
REM Total runtime: 196834 s
REM Overall efficiency: 87.1429 %
REM
REM
REM
REM compiler GCC version 4.9.2
REM options -cpp -iprefix /lustre/shared/ucl/apps/gcc/4.9.2/bin/../lib/gcc/x86_64-unknown-linux-gnu/4.9.2/ -mtune=corei7 -march=x86-64 -g -Og
REM COMMAND_LINE
REM seed 1856270056 -199150387 2014334245 -1777115949 2120457304 -1899291690 1359814242 -1198335068 1879869564 1596128642 1457881204 -930279444
REM
REM S 3|1.8|5|6|7|30:31:32(qc=5)
REM O 2|1.5|12|13|15|20:21(qc=5)
REM Li 1|1.3|8|9|10|10U:20(qc=5)
REM Fe 3|2.2|2.0|1.0|8|9|10|40:41:32(qc=5)
REM 
CELL 1.54180    5.64789    5.64789   10.89774   90.00000   90.00000  120.00000
LATT -1
SFAC Li O  S  Fe 
Li     1 -0.0586270000000  0.3236950000000  0.1897780000000 1.0  -0.00
Li     1  0.3823230000000  0.0586270000000  0.1897780000000 1.0  -0.00
Li     1 -0.3236950000000 -0.3823230000000  0.1897780000000 1.0  -0.00
Li     1 -0.3333330000000  0.3333330000000  0.4242630000000 1.0  -0.00
O      2 -0.3333330000000  0.3333330000000  0.0758670000000 1.0   0.00
O      2  0.3333340000000 -0.3333340000000 -0.1185130000000 1.0  -0.00
S      3 -0.3021220000000 -0.2981430000000 -0.4006090000000 1.0   0.00
S      3  0.0039800000000  0.3021220000000 -0.4006090000000 1.0   0.00
S      3  0.2981430000000 -0.0039800000000 -0.4006090000000 1.0   0.00
S      3 -0.3396790000000 -0.0551440000000  0.3298980000000 1.0  -0.00
S      3  0.2845370000000  0.3396790000000  0.3298980000000 1.0  -0.00
S      3  0.0551440000000 -0.2845370000000  0.3298980000000 1.0  -0.00
S      3  0.0000000000000 -0.0000000000000 -0.0280890000000 1.0  -0.00
S      3 -0.3333330000000  0.3333330000000 -0.1514570000000 1.0   0.00
Fe     4  0.0161110000000 -0.3774370000000 -0.0449070000000 1.0  -0.01
Fe     4 -0.3935470000000 -0.0161110000000 -0.0449070000000 1.0  -0.01
Fe     4  0.3774370000000  0.3935470000000 -0.0449070000000 1.0  -0.01
Fe     4 -0.2529730000000 -0.2529410000000 -0.2020980000000 1.0  -0.04
Fe     4  0.0000330000000  0.2529730000000 -0.2020980000000 1.0  -0.04
Fe     4  0.2529410000000 -0.0000330000000 -0.2020980000000 1.0  -0.04
Fe     4 -0.3333330000000  0.3333330000000 -0.3422220000000 1.0  -0.01
Fe     4  0.0000000000000 -0.0000000000000  0.4630140000000 1.0   0.00
END
