TITL LFSO-Li4Fe2S4O-200910-205627-b9db6a 0.3702 433.728399 -8.35893927E+003 -9.49788 10.1535 22 (P3) n - 1
REM
REM Run started: Sat, 12 Sep 2020 04:31:33 +0100 in /lustre/scratch/uccabz1/launch_tmp/launcher_2020-09-10-19-56-24-995230
REM CASTEP 20.1 from code version af48c487+ pr-geom-scf-spinfix Tue Jun 2 15:39:59 2020 +0100
REM Functional Perdew Burke Ernzerhof Relativity Koelling-Harmon Dispersion off
REM Cut-off 340.0000 eV Grid scale 1.7500 Gmax 16.5316 1/A FBSC none
REM MP grid 2 3 3 Offset 0.000 0.000 0.000 No. kpts 5 Spacing 0.07
REM Total runtime: 120206 s
REM Overall efficiency: 76.8333 %
REM
REM
REM
REM compiler GCC version 4.9.2
REM options -cpp -iprefix /lustre/shared/ucl/apps/gcc/4.9.2/bin/../lib/gcc/x86_64-unknown-linux-gnu/4.9.2/ -mtune=corei7 -march=x86-64 -g -Og
REM COMMAND_LINE
REM seed -806961990 2117636274 -1503268712 1625174388 1847619638 -1259299447 1878910542 1138776425 1882877867 1241624791 -1814378163 -550563465
REM
REM S 3|1.8|5|6|7|30:31:32(qc=5)
REM O 2|1.5|12|13|15|20:21(qc=5)
REM Li 1|1.3|8|9|10|10U:20(qc=5)
REM Fe 3|2.2|2.0|1.0|8|9|10|40:41:32(qc=5)
REM 
CELL 1.54180   14.32222    5.91342    5.91342  120.00000   90.00000   90.00000
LATT -1
SFAC Li O  S  Fe 
Li     1 -0.0401410000000  0.3785620000000  0.3745680000000 1.0  -0.00
Li     1 -0.0401410000000 -0.0039940000000 -0.3785620000000 1.0  -0.00
Li     1 -0.0401410000000 -0.3745680000000  0.0039940000000 1.0  -0.00
Li     1 -0.1694900000000  0.5701470000000 -0.4257660000000 1.0  -0.00
Li     1 -0.1694900000000  0.0040860000000 -0.5701470000000 1.0  -0.00
Li     1 -0.1694900000000  0.4257660000000 -0.0040860000000 1.0  -0.00
Li     1  0.5072260000000  0.3333330000000 -0.3333330000000 1.0  -0.02
Li     1 -0.2527850000000 -0.0000000000000  0.0000000000000 1.0  -0.01
O      2 -0.1035910000000  0.3333330000000 -0.3333330000000 1.0  -0.01
O      2 -0.1093170000000 -0.3333330000000  0.3333330000000 1.0   0.01
S      3  0.3044690000000 -0.3351630000000 -0.0670180000000 1.0  -0.02
S      3  0.3044690000000  0.2681460000000  0.3351630000000 1.0  -0.02
S      3  0.3044690000000  0.0670180000000 -0.2681460000000 1.0  -0.02
S      3 -0.3747990000000  0.0099180000000 -0.3274400000000 1.0  -0.07
S      3 -0.3747990000000 -0.3373580000000 -0.0099180000000 1.0  -0.07
S      3 -0.3747990000000  0.3274400000000  0.3373580000000 1.0  -0.07
S      3  0.1288430000000 -0.3333330000000  0.3333330000000 1.0  -0.28
S      3 -0.0965240000000 -0.0000000000000  0.0000000000000 1.0  -0.02
Fe     4  0.2538010000000 -0.3330960000000 -0.4191980000000 1.0  -2.33
Fe     4  0.2538010000000 -0.0861020000000  0.3330960000000 1.0  -2.33
Fe     4  0.2538010000000  0.4191980000000  0.0861020000000 1.0  -2.33
Fe     4  0.5854470000000 -0.0000000000000  0.0000000000000 1.0  -1.88
END
