TITL LFSO-Li3Fe3SO5-200926-232927-b13c66 0.0326 124.843463 -5.68446125E+003 7.73631 7.94676 12 (Pmm2) n - 1
REM
REM Run started: Sun, 27 Sep 2020 00:57:40 +0100 in /lustre/scratch/uccabz1/launch_tmp/launcher_2020-09-26-22-29-26-358627
REM CASTEP 20.1 from code version af48c487+ pr-geom-scf-spinfix Tue Jun 2 15:39:59 2020 +0100
REM Functional Perdew Burke Ernzerhof Relativity Koelling-Harmon Dispersion off
REM Cut-off 340.0000 eV Grid scale 1.7500 Gmax 16.5316 1/A FBSC none
REM MP grid 6 3 2 Offset 0.000 0.000 0.000 No. kpts 9 Spacing 0.07
REM Total runtime: 5866.41 s
REM Overall efficiency: 95.375 %
REM
REM
REM
REM compiler GCC version 4.9.2
REM options -cpp -iprefix /lustre/shared/ucl/apps/gcc/4.9.2/bin/../lib/gcc/x86_64-unknown-linux-gnu/4.9.2/ -mtune=corei7 -march=x86-64 -g -Og
REM COMMAND_LINE
REM seed 1244154672 1231946998 -342726079 -1360819445 -1615432870 1244702409 -334314160 1132777194 -673203603 -1323763312 -427059678 -119381595
REM
REM S 3|1.8|5|6|7|30:31:32(qc=5)
REM O 2|1.5|12|13|15|20:21(qc=5)
REM Li 1|1.3|8|9|10|10U:20(qc=5)
REM Fe 3|2.2|2.0|1.0|8|9|10|40:41:32(qc=5)
REM 
CELL 1.54180    2.81240    5.10190    8.70145   90.00000   90.00000   89.26634
LATT -1
SFAC Li O  S  Fe 
Li     1 -0.1891650000000  0.4585970000000 -0.1343090000000 1.0   0.00
Li     1 -0.1891650000000  0.4585970000000  0.1343090000000 1.0   0.00
Li     1 -0.1772160000000  0.0448330000000  0.0000000000000 1.0  -0.04
O      2 -0.1713510000000 -0.1682320000000  0.1855580000000 1.0   0.13
O      2 -0.1713510000000 -0.1682320000000 -0.1855580000000 1.0   0.13
O      2 -0.1842160000000  0.2698220000000  0.3308220000000 1.0   0.18
O      2 -0.1842160000000  0.2698220000000 -0.3308220000000 1.0   0.18
O      2 -0.6842330000000  0.2945740000000  0.0000000000000 1.0   0.04
S      3 -0.6742540000000 -0.1952570000000  0.5000000000000 1.0  -0.03
Fe     4  0.3258960000000  0.0144270000000  0.2734730000000 1.0   1.87
Fe     4  0.3258960000000  0.0144270000000 -0.2734730000000 1.0   1.87
Fe     4  0.3093180000000  0.3409080000000 -0.5000000000000 1.0   3.41
END
