TITL LFSO-Li2Fe2S3O-200913-053149-729a4b -0.0064 374.707142 -6.95301683E+003 -0.594286E-01 16.0540 16 (P21) n - 1
REM
REM Run started: Sun, 13 Sep 2020 15:25:36 +0100 in /lustre/scratch/uccabz1/launch_tmp/launcher_2020-09-13-04-31-47-930429
REM CASTEP 20.1 from code version af48c487+ pr-geom-scf-spinfix Tue Jun 2 15:39:59 2020 +0100
REM Functional Perdew Burke Ernzerhof Relativity Koelling-Harmon Dispersion off
REM Cut-off 340.0000 eV Grid scale 1.7500 Gmax 16.5316 1/A FBSC none
REM MP grid 3 3 2 Offset 0.000 0.000 0.000 No. kpts 6 Spacing 0.07
REM Total runtime: 33726.3 s
REM Overall efficiency: 97.5 %
REM
REM
REM
REM compiler GCC version 4.9.2
REM options -cpp -iprefix /lustre/shared/ucl/apps/gcc/4.9.2/bin/../lib/gcc/x86_64-unknown-linux-gnu/4.9.2/ -mtune=corei7 -march=x86-64 -g -Og
REM COMMAND_LINE
REM seed 1210041645 108139651 1584255981 -1022833408 1341482957 -580262357 -1600499609 -677279666 -1327439642 1842227698 -1011836845 -2141387880
REM
REM S 3|1.8|5|6|7|30:31:32(qc=5)
REM O 2|1.5|12|13|15|20:21(qc=5)
REM Li 1|1.3|8|9|10|10U:20(qc=5)
REM Fe 3|2.2|2.0|1.0|8|9|10|40:41:32(qc=5)
REM 
CELL 1.54180    5.57517    6.76457   10.02549   97.67910   90.00000   90.00000
LATT -1
SFAC Li O  S  Fe 
Li     1 -0.3095250000000  0.1551530000000 -0.0636180000000 1.0  -0.01
Li     1  0.1904750000000 -0.1551530000000  0.0636180000000 1.0  -0.01
Li     1 -0.3852510000000 -0.3751490000000  0.4171470000000 1.0   0.04
Li     1  0.1147490000000  0.3751490000000 -0.4171470000000 1.0   0.04
O      2  0.5592980000000 -0.6033400000000  0.0003400000000 1.0  -0.42
O      2  0.0592980000000  0.6033400000000 -0.0003400000000 1.0  -0.42
S      3 -0.2476310000000  0.2931880000000  0.4536110000000 1.0   0.39
S      3  0.2523690000000 -0.2931880000000 -0.4536110000000 1.0   0.39
S      3  0.0946750000000  0.1854550000000  0.1342690000000 1.0   0.02
S      3 -0.4053250000000 -0.1854550000000 -0.1342690000000 1.0   0.02
S      3 -0.3556980000000 -0.1835820000000  0.2204960000000 1.0   0.03
S      3  0.1443020000000  0.1835820000000 -0.2204960000000 1.0   0.03
Fe     4  0.3090090000000 -0.1128530000000 -0.2656430000000 1.0   3.37
Fe     4 -0.1909910000000  0.1128530000000  0.2656430000000 1.0   3.37
Fe     4 -0.2713940000000 -0.3632290000000  0.0194700000000 1.0  -3.46
Fe     4  0.2286060000000  0.3632290000000 -0.0194700000000 1.0  -3.46
END
