TITL LFSO-Li4Fe2S3O-200911-003437-303d5f 0.0111 175.069146 -3.87479620E+003 5.41771 5.80130 10 (Cmm2) n - 1
REM
REM Run started: Fri, 11 Sep 2020 04:08:45 +0100 in /lustre/scratch/uccabz1/launch_tmp/launcher_2020-09-10-23-34-35-400194
REM CASTEP 20.1 from code version af48c487+ pr-geom-scf-spinfix Tue Jun 2 15:39:59 2020 +0100
REM Functional Perdew Burke Ernzerhof Relativity Koelling-Harmon Dispersion off
REM Cut-off 340.0000 eV Grid scale 1.7500 Gmax 16.5316 1/A FBSC none
REM MP grid 3 3 5 Offset 0.000 0.000 0.000 No. kpts 12 Spacing 0.07
REM Total runtime: 12894.3 s
REM Overall efficiency: 95.5385 %
REM
REM
REM
REM compiler GCC version 4.9.2
REM options -cpp -iprefix /lustre/shared/ucl/apps/gcc/4.9.2/bin/../lib/gcc/x86_64-unknown-linux-gnu/4.9.2/ -mtune=corei7 -march=x86-64 -g -Og
REM COMMAND_LINE
REM seed -1473752492 1960936850 1119184798 1652782950 1028933629 1634959107 -1712807879 -488988609 -1702895151 1605646270 -814900608 1708383802
REM
REM S 3|1.8|5|6|7|30:31:32(qc=5)
REM O 2|1.5|12|13|15|20:21(qc=5)
REM Li 1|1.3|8|9|10|10U:20(qc=5)
REM Fe 3|2.2|2.0|1.0|8|9|10|40:41:32(qc=5)
REM 
CELL 1.54180    7.69699    7.59432    3.47415   90.00000   90.00000  120.44825
LATT -1
SFAC Li O  S  Fe 
Li     1  0.2606360000000  0.2003300000000  0.0829830000000 1.0  -0.04
Li     1 -0.2606360000000 -0.2003300000000  0.0829830000000 1.0  -0.04
Li     1  0.0603060000000 -0.2003300000000  0.0829830000000 1.0  -0.04
Li     1 -0.0603060000000  0.2003300000000  0.0829830000000 1.0  -0.04
O      2  0.0000000000000  0.0000000000000  0.1297830000000 1.0   0.01
S      3 -0.2688700000000 -0.5377390000000  0.0368110000000 1.0   0.06
S      3  0.2688700000000  0.5377390000000  0.0368110000000 1.0   0.06
S      3 -0.5000000000000  0.0000000000000  0.0383450000000 1.0   0.05
Fe     4 -0.3806380000000  0.2387230000000  0.5316040000000 1.0   2.70
Fe     4  0.3806380000000 -0.2387230000000  0.5316040000000 1.0   2.70
END
