TITL LFSO-Li3FeS2O-200911-181359-f77379 0.0396 226.804083 -5.01770932E+003 9.64956 9.68012 14 (C2221) n - 1
REM
REM Run started: Fri, 11 Sep 2020 20:56:13 +0100 in /lustre/scratch/uccabz1/launch_tmp/launcher_2020-09-11-17-13-55-856984
REM CASTEP 20.1 from code version af48c487+ pr-geom-scf-spinfix Tue Jun 2 15:39:59 2020 +0100
REM Functional Perdew Burke Ernzerhof Relativity Koelling-Harmon Dispersion off
REM Cut-off 340.0000 eV Grid scale 1.7500 Gmax 16.5316 1/A FBSC none
REM MP grid 3 3 3 Offset 0.000 0.000 0.000 No. kpts 8 Spacing 0.07
REM Total runtime: 10048.7 s
REM Overall efficiency: 96.5 %
REM
REM
REM
REM compiler GCC version 4.9.2
REM options -cpp -iprefix /lustre/shared/ucl/apps/gcc/4.9.2/bin/../lib/gcc/x86_64-unknown-linux-gnu/4.9.2/ -mtune=corei7 -march=x86-64 -g -Og
REM COMMAND_LINE
REM seed -61089608 -1511403497 -1369255026 -1456383833 1784947547 -1511769284 -1857589792 -440345719 881577286 -208148385 1422307026 -935520990
REM
REM S 3|1.8|5|6|7|30:31:32(qc=5)
REM O 2|1.5|12|13|15|20:21(qc=5)
REM Li 1|1.3|8|9|10|10U:20(qc=5)
REM Fe 3|2.2|2.0|1.0|8|9|10|40:41:32(qc=5)
REM 
CELL 1.54180    6.62395    6.06815    6.06815  111.58587   90.00000   90.00000
LATT -1
SFAC Li O  S  Fe 
Li     1  0.2807120000000  0.2263430000000  0.2338260000000 1.0   0.01
Li     1 -0.2192880000000 -0.2263430000000 -0.2338260000000 1.0   0.01
Li     1  0.2192880000000 -0.2338260000000 -0.2263430000000 1.0   0.01
Li     1 -0.2807120000000  0.2338260000000  0.2263430000000 1.0   0.01
Li     1  0.2500000000000 -0.3273760000000  0.3273760000000 1.0  -0.01
Li     1 -0.2500000000000  0.3273760000000 -0.3273760000000 1.0  -0.01
O      2  0.2500000000000 -0.5207700000000  0.5207700000000 1.0   0.44
O      2 -0.2500000000000  0.5207700000000 -0.5207700000000 1.0   0.44
S      3 -0.4934520000000 -0.0160980000000  0.3586320000000 1.0   0.31
S      3  0.0065480000000  0.0160980000000 -0.3586320000000 1.0   0.31
S      3 -0.0065480000000 -0.3586320000000  0.0160980000000 1.0   0.31
S      3  0.4934520000000  0.3586320000000 -0.0160980000000 1.0   0.31
Fe     4  0.2500000000000  0.2985120000000 -0.2985120000000 1.0   3.76
Fe     4 -0.2500000000000 -0.2985120000000  0.2985120000000 1.0   3.76
END
