TITL LFSO-Li2Fe3S2O2-200921-034242-e7ed45 -0.0010 296.177265 -8.94726001E+003 8.77408 9.70072 18 (P21212) n - 1
REM
REM Run started: Mon, 21 Sep 2020 08:11:13 +0100 in /lustre/scratch/uccabz1/launch_tmp/launcher_2020-09-21-02-42-41-174905
REM CASTEP 20.1 from code version af48c487+ pr-geom-scf-spinfix Tue Jun 2 15:39:59 2020 +0100
REM Functional Perdew Burke Ernzerhof Relativity Koelling-Harmon Dispersion off
REM Cut-off 340.0000 eV Grid scale 1.7500 Gmax 16.5316 1/A FBSC none
REM MP grid 3 2 3 Offset 0.000 0.000 0.000 No. kpts 4 Spacing 0.07
REM Total runtime: 16187.4 s
REM Overall efficiency: 93.5 %
REM
REM
REM
REM compiler GCC version 4.9.2
REM options -cpp -iprefix /lustre/shared/ucl/apps/gcc/4.9.2/bin/../lib/gcc/x86_64-unknown-linux-gnu/4.9.2/ -mtune=corei7 -march=x86-64 -g -Og
REM COMMAND_LINE
REM seed 990181419 -1111800720 -428499463 701851009 1391777352 -1083231343 -2047995478 583556798 2090887733 1086680089 -777854147 -1496198228
REM
REM S 3|1.8|5|6|7|30:31:32(qc=5)
REM O 2|1.5|12|13|15|20:21(qc=5)
REM Li 1|1.3|8|9|10|10U:20(qc=5)
REM Fe 3|2.2|2.0|1.0|8|9|10|40:41:32(qc=5)
REM 
CELL 1.54180    5.32873    8.14614    6.82301   90.00000   90.00000   90.00000
LATT -1
SFAC Li O  S  Fe 
Li     1 -0.3865970000000  0.0992260000000  0.2394070000000 1.0  -0.00
Li     1  0.3865970000000  0.0992260000000 -0.2394070000000 1.0  -0.00
Li     1  0.1134030000000 -0.0992260000000  0.2605930000000 1.0  -0.00
Li     1 -0.1134030000000 -0.0992260000000 -0.2605930000000 1.0  -0.00
O      2 -0.4489400000000 -0.0974980000000 -0.2080610000000 1.0   0.10
O      2  0.4489400000000 -0.0974980000000  0.2080610000000 1.0   0.10
O      2  0.0510600000000  0.0974980000000 -0.2919390000000 1.0   0.10
O      2 -0.0510600000000  0.0974980000000  0.2919390000000 1.0   0.10
S      3 -0.0648680000000 -0.4027710000000 -0.2477170000000 1.0  -0.06
S      3  0.0648680000000 -0.4027710000000  0.2477170000000 1.0  -0.06
S      3  0.4351320000000  0.4027710000000 -0.2522830000000 1.0  -0.06
S      3 -0.4351320000000  0.4027710000000  0.2522830000000 1.0  -0.06
Fe     4  0.2471190000000 -0.4245590000000 -0.0417530000000 1.0   1.41
Fe     4 -0.2471190000000 -0.4245590000000  0.0417530000000 1.0   1.41
Fe     4 -0.2528810000000  0.4245590000000 -0.4582470000000 1.0   1.41
Fe     4  0.2528810000000  0.4245590000000  0.4582470000000 1.0   1.41
Fe     4  0.5000000000000 -0.2014780000000 -0.0000000000000 1.0   1.49
Fe     4  0.0000000000000  0.2014780000000  0.5000000000000 1.0   1.49
END
