TITL LFSO-Li2Fe4S4O-200911-204352-cd8722 -0.0121 220.259960 -5.50523114E+003 -13.1097 13.5262 11 (I4) n - 1
REM
REM Run started: Fri, 11 Sep 2020 23:46:06 +0100 in /lustre/scratch/uccabz1/launch_tmp/launcher_2020-09-11-19-43-50-118530
REM CASTEP 20.1 from code version af48c487+ pr-geom-scf-spinfix Tue Jun 2 15:39:59 2020 +0100
REM Functional Perdew Burke Ernzerhof Relativity Koelling-Harmon Dispersion off
REM Cut-off 340.0000 eV Grid scale 1.7500 Gmax 16.5316 1/A FBSC none
REM MP grid 3 3 4 Offset 0.000 0.000 0.000 No. kpts 12 Spacing 0.07
REM Total runtime: 11038.1 s
REM Overall efficiency: 95.25 %
REM
REM
REM
REM compiler GCC version 4.9.2
REM options -cpp -iprefix /lustre/shared/ucl/apps/gcc/4.9.2/bin/../lib/gcc/x86_64-unknown-linux-gnu/4.9.2/ -mtune=corei7 -march=x86-64 -g -Og
REM COMMAND_LINE
REM seed -425675979 -16746928 827760878 1649297736 -1836656415 1868856452 1005253617 -243736420 1385699680 -1762356563 1943418455 1493844455
REM
REM S 3|1.8|5|6|7|30:31:32(qc=5)
REM O 2|1.5|12|13|15|20:21(qc=5)
REM Li 1|1.3|8|9|10|10U:20(qc=5)
REM Fe 3|2.2|2.0|1.0|8|9|10|40:41:32(qc=5)
REM 
CELL 1.54180    7.19100    7.19100    6.63313  122.82337  122.82337   90.00000
LATT -1
SFAC Li O  S  Fe 
Li     1 -0.0322910000000  0.4677090000000 -0.0645830000000 1.0   0.19
Li     1  0.4677090000000 -0.0322910000000 -0.0645830000000 1.0   0.19
O      2  0.2114890000000  0.2114890000000  0.4229780000000 1.0  -0.30
S      3 -0.1859110000000  0.0351700000000 -0.5635010000000 1.0  -0.21
S      3 -0.3775900000000  0.4013290000000 -0.5635010000000 1.0  -0.21
S      3  0.4013290000000 -0.1859110000000 -0.5635010000000 1.0  -0.21
S      3  0.0351700000000 -0.3775900000000 -0.5635010000000 1.0  -0.21
Fe     4  0.1170880000000 -0.0441490000000  0.4304420000000 1.0  -3.08
Fe     4  0.3133540000000 -0.5254080000000  0.4304420000000 1.0  -3.08
Fe     4 -0.5254080000000  0.1170880000000  0.4304420000000 1.0  -3.08
Fe     4 -0.0441490000000  0.3133540000000  0.4304420000000 1.0  -3.08
END
