TITL LFSO-LiFe3S3O2-200909-154607-c08c03 0.0323 132.570403 -4.57753127E+003 -2.39161 8.16988 9 (Amm2) n - 1
REM
REM Run started: Wed, 09 Sep 2020 16:55:03 +0100 in /lustre/scratch/uccabz1/launch_tmp/launcher_2020-09-09-14-46-04-850031
REM CASTEP 20.1 from code version af48c487+ pr-geom-scf-spinfix Tue Jun 2 15:39:59 2020 +0100
REM Functional Perdew Burke Ernzerhof Relativity Koelling-Harmon Dispersion off
REM Cut-off 340.0000 eV Grid scale 1.7500 Gmax 16.5316 1/A FBSC none
REM MP grid 5 3 3 Offset 0.000 0.000 0.000 No. kpts 16 Spacing 0.07
REM Total runtime: 4207.89 s
REM Overall efficiency: 93.8333 %
REM
REM
REM
REM compiler GCC version 4.9.2
REM options -cpp -iprefix /lustre/shared/ucl/apps/gcc/4.9.2/bin/../lib/gcc/x86_64-unknown-linux-gnu/4.9.2/ -mtune=corei7 -march=x86-64 -g -Og
REM COMMAND_LINE
REM seed 2080341121 1302300527 -1142678103 1322182507 -787804217 260846869 -384652178 505700546 -751233071 1044238927 357979078 120026081
REM
REM S 3|1.8|5|6|7|30:31:32(qc=5)
REM O 2|1.5|12|13|15|20:21(qc=5)
REM Li 1|1.3|8|9|10|10U:20(qc=5)
REM Fe 3|2.2|2.0|1.0|8|9|10|40:41:32(qc=5)
REM 
CELL 1.54180    3.58572    5.69688    6.83724   90.00000   90.00000  108.34329
LATT -1
SFAC Li O  S  Fe 
Li     1  0.1752240000000  0.3504470000000  0.0000000000000 1.0   0.08
O      2 -0.3420700000000 -0.6841410000000  0.5000000000000 1.0  -0.11
O      2  0.0091920000000  0.0183850000000 -0.5000000000000 1.0   0.07
S      3  0.3320250000000  0.6640490000000  0.2463910000000 1.0   0.07
S      3  0.3320250000000  0.6640490000000 -0.2463910000000 1.0   0.07
S      3 -0.4571360000000 -0.9142720000000  0.0000000000000 1.0   0.01
Fe     4 -0.0922250000000 -0.1844500000000  0.0000000000000 1.0  -2.89
Fe     4  0.4749810000000  0.9499610000000 -0.5000000000000 1.0   2.60
Fe     4  0.1911050000000  0.3822100000000 -0.5000000000000 1.0  -2.28
END
