TITL LFSO-Li2Fe3SO3-200912-163804-130c88 0.0013 120.455144 -4.60551675E+003 11.0407 11.1172 9 (C2/m) n - 1
REM
REM Run started: Sat, 12 Sep 2020 19:35:29 +0100 in /lustre/scratch/uccabz1/launch_tmp/launcher_2020-09-12-15-38-03-024950
REM CASTEP 20.1 from code version af48c487+ pr-geom-scf-spinfix Tue Jun 2 15:39:59 2020 +0100
REM Functional Perdew Burke Ernzerhof Relativity Koelling-Harmon Dispersion off
REM Cut-off 340.0000 eV Grid scale 1.7500 Gmax 16.5316 1/A FBSC none
REM MP grid 4 5 3 Offset 0.000 0.000 0.000 No. kpts 30 Spacing 0.07
REM Total runtime: 11242 s
REM Overall efficiency: 96.125 %
REM
REM
REM
REM compiler GCC version 4.9.2
REM options -cpp -iprefix /lustre/shared/ucl/apps/gcc/4.9.2/bin/../lib/gcc/x86_64-unknown-linux-gnu/4.9.2/ -mtune=corei7 -march=x86-64 -g -Og
REM COMMAND_LINE
REM seed 2046715727 -724419367 -882738609 -807078486 -2060453981 -1002435867 -480441252 487874455 526631492 1333668889 -201285617 -2062102084
REM
REM S 3|1.8|5|6|7|30:31:32(qc=5)
REM O 2|1.5|12|13|15|20:21(qc=5)
REM Li 1|1.3|8|9|10|10U:20(qc=5)
REM Fe 3|2.2|2.0|1.0|8|9|10|40:41:32(qc=5)
REM 
CELL 1.54180    4.48477    4.48478    7.59072  127.87850   88.74327   89.88049
LATT -1
SFAC Li O  S  Fe 
Li     1 -0.9776990000000 -0.3380320000000 -1.3157310000000 1.0  -0.11
Li     1  0.9776990000000  0.3380320000000  1.3157310000000 1.0  -0.11
O      2  0.2254220000000  0.2291570000000  0.4545800000000 1.0   0.33
O      2 -0.2254220000000 -0.2291570000000 -0.4545800000000 1.0   0.33
O      2  0.0000000000000  0.0000000000000  0.0000000000000 1.0   0.16
S      3  0.5000000000000  0.5000000000000  1.0000000000000 1.0   0.20
Fe     4 -0.5000000000000  0.0000000000000  0.0000000000000 1.0   3.28
Fe     4  0.0000000000000 -0.5000000000000  0.0000000000000 1.0   3.28
Fe     4 -0.5000000000000  0.0000000000000 -0.5000000000000 1.0   3.67
END
