TITL LFSO-Li2FeSO-200912-012045-7f24ef 0.0464 259.444641 -6.01289634E+003 -9.13067 9.64280 15 (P2) n - 1
REM
REM Run started: Sat, 12 Sep 2020 23:00:57 +0100 in /lustre/scratch/uccabz1/launch_tmp/launcher_2020-09-12-00-20-43-360686
REM CASTEP 20.1 from code version af48c487+ pr-geom-scf-spinfix Tue Jun 2 15:39:59 2020 +0100
REM Functional Perdew Burke Ernzerhof Relativity Koelling-Harmon Dispersion off
REM Cut-off 340.0000 eV Grid scale 1.7500 Gmax 16.5316 1/A FBSC none
REM MP grid 6 2 3 Offset 0.000 0.000 0.000 No. kpts 12 Spacing 0.07
REM Total runtime: 66962.6 s
REM Overall efficiency: 86.1667 %
REM
REM
REM
REM compiler GCC version 4.9.2
REM options -cpp -iprefix /lustre/shared/ucl/apps/gcc/4.9.2/bin/../lib/gcc/x86_64-unknown-linux-gnu/4.9.2/ -mtune=corei7 -march=x86-64 -g -Og
REM COMMAND_LINE
REM seed 711574826 1582802085 -1738751414 -2045247471 720511883 1745518680 1745203993 956858078 -248730455 -272855260 1073007064 846333875
REM
REM S 3|1.8|5|6|7|30:31:32(qc=5)
REM O 2|1.5|12|13|15|20:21(qc=5)
REM Li 1|1.3|8|9|10|10U:20(qc=5)
REM Fe 3|2.2|2.0|1.0|8|9|10|40:41:32(qc=5)
REM 
CELL 1.54180    2.81663   13.70671    6.72606   90.00000   90.00000   92.39377
LATT -1
SFAC Li O  S  Fe 
Li     1 -0.2803890000000 -0.3134010000000  0.1374190000000 1.0  -0.01
Li     1  0.2803890000000  0.3134010000000  0.1374190000000 1.0  -0.01
Li     1 -0.2806930000000 -0.2548080000000 -0.1843100000000 1.0   0.01
Li     1  0.2806930000000  0.2548080000000 -0.1843100000000 1.0   0.01
Li     1  0.2558980000000  0.1504360000000  0.0861600000000 1.0   0.04
Li     1 -0.2558980000000 -0.1504360000000  0.0861600000000 1.0   0.04
O      2 -0.2265540000000  0.2351960000000  0.0007180000000 1.0  -0.02
O      2  0.2265540000000 -0.2351960000000  0.0007180000000 1.0  -0.02
O      2  0.0000000000000 -0.5000000000000 -0.3018830000000 1.0  -0.31
S      3 -0.7117800000000  0.1971600000000  0.4664290000000 1.0  -0.09
S      3  0.7117800000000 -0.1971600000000  0.4664290000000 1.0  -0.09
S      3  0.5000000000000  0.5000000000000  0.2104700000000 1.0  -0.19
Fe     4  0.2356260000000 -0.0725820000000 -0.4895880000000 1.0  -2.86
Fe     4 -0.2356260000000  0.0725820000000 -0.4895880000000 1.0  -2.86
Fe     4  0.5000000000000  0.5000000000000 -0.4605020000000 1.0  -2.77
END
