TITL LFSO-Li5FeS3O-200910-101808-dc54db 0.0408 349.971338 -6.42675134E+003 9.99606 10.1013 20 (R3) n - 1
REM
REM Run started: Fri, 11 Sep 2020 05:20:08 +0100 in /lustre/scratch/uccabz1/launch_tmp/launcher_2020-09-10-09-18-06-048936
REM CASTEP 20.1 from code version af48c487+ pr-geom-scf-spinfix Tue Jun 2 15:39:59 2020 +0100
REM Functional Perdew Burke Ernzerhof Relativity Koelling-Harmon Dispersion off
REM Cut-off 340.0000 eV Grid scale 1.7500 Gmax 16.5316 1/A FBSC none
REM MP grid 3 3 4 Offset 0.000 0.000 0.000 No. kpts 14 Spacing 0.07
REM Total runtime: 68796.8 s
REM Overall efficiency: 98.4615 %
REM
REM
REM
REM compiler GCC version 4.9.2
REM options -cpp -iprefix /lustre/shared/ucl/apps/gcc/4.9.2/bin/../lib/gcc/x86_64-unknown-linux-gnu/4.9.2/ -mtune=corei7 -march=x86-64 -g -Og
REM COMMAND_LINE
REM seed -1584387704 1652313229 -1389006562 -159192805 1915564109 1136525816 -1519343728 2015438588 -1901344610 1470396184 -2062600817 460047085
REM
REM S 3|1.8|5|6|7|30:31:32(qc=5)
REM O 2|1.5|12|13|15|20:21(qc=5)
REM Li 1|1.3|8|9|10|10U:20(qc=5)
REM Fe 3|2.2|2.0|1.0|8|9|10|40:41:32(qc=5)
REM 
CELL 1.54180   10.13301   10.13301    7.05095   44.06455   44.06455   60.00000
LATT -1
SFAC Li O  S  Fe 
Li     1  0.0182050000000 -0.1258410000000 -0.1490810000000 1.0   0.03
Li     1  0.2567170000000  0.0182050000000 -0.1490810000000 1.0   0.03
Li     1 -0.1258410000000  0.2567170000000 -0.1490810000000 1.0   0.03
Li     1 -0.1279200000000  0.0225000000000 -0.5572740000000 1.0   0.05
Li     1 -0.3373060000000 -0.1279200000000 -0.5572740000000 1.0   0.05
Li     1  0.0225000000000 -0.3373060000000 -0.5572740000000 1.0   0.05
Li     1 -0.5751120000000  0.4565360000000  0.1618060000000 1.0  -0.02
Li     1 -0.0432300000000 -0.5751120000000  0.1618060000000 1.0  -0.02
Li     1  0.4565360000000 -0.0432300000000  0.1618060000000 1.0  -0.02
Li     1 -0.5553160000000 -0.5553160000000  0.6659490000000 1.0  -0.04
O      2 -0.1809810000000 -0.1809810000000  0.5429430000000 1.0   0.40
O      2  0.0590960000000  0.0590960000000 -0.1772870000000 1.0   0.42
S      3 -0.2980600000000 -0.2643800000000  0.2087250000000 1.0   0.29
S      3  0.3537160000000 -0.2980600000000  0.2087250000000 1.0   0.29
S      3 -0.2643800000000  0.3537160000000  0.2087250000000 1.0   0.29
S      3  0.1755800000000  0.1336160000000  0.1702080000000 1.0   0.29
S      3  0.5205960000000  0.1755800000000  0.1702080000000 1.0   0.29
S      3  0.1336160000000  0.5205960000000  0.1702080000000 1.0   0.29
Fe     4  0.2139960000000  0.2139960000000 -0.6419870000000 1.0   3.64
Fe     4 -0.3349810000000 -0.3349810000000  0.0049440000000 1.0   3.68
END
