TITL LFSO-Li4Fe3SO4-200930-151725-c00168 -0.0289 190.171195 -5.44568651E+003 10.9218 11.1917 12 (Cm) n - 1
REM
REM Run started: Wed, 30 Sep 2020 18:32:58 +0100 in /lustre/scratch/uccabz1/launch_tmp/launcher_2020-09-30-14-17-24-135619
REM CASTEP 20.1 from code version af48c487+ pr-geom-scf-spinfix Tue Jun 2 15:39:59 2020 +0100
REM Functional Perdew Burke Ernzerhof Relativity Koelling-Harmon Dispersion off
REM Cut-off 340.0000 eV Grid scale 1.7500 Gmax 16.5316 1/A FBSC none
REM MP grid 4 4 2 Offset 0.000 0.000 0.000 No. kpts 10 Spacing 0.07
REM Total runtime: 11276.6 s
REM Overall efficiency: 66.1429 %
REM
REM
REM
REM compiler GCC version 4.9.2
REM options -cpp -iprefix /lustre/shared/ucl/apps/gcc/4.9.2/bin/../lib/gcc/x86_64-unknown-linux-gnu/4.9.2/ -mtune=corei7 -march=x86-64 -g -Og
REM COMMAND_LINE
REM seed -740916319 2092892467 -12357455 -1153967026 99740148 -502077744 1439368842 1174674093 -1353881019 -1971501630 1339086005 1914867852
REM
REM S 3|1.8|5|6|7|30:31:32(qc=5)
REM O 2|1.5|12|13|15|20:21(qc=5)
REM Li 1|1.3|8|9|10|10U:20(qc=5)
REM Fe 3|2.2|2.0|1.0|8|9|10|40:41:32(qc=5)
REM 
CELL 1.54180    5.35071    5.35071    8.08862   98.38399   98.38399  120.74740
LATT -1
SFAC Li O  S  Fe 
Li     1 -0.3007270000000  0.0704760000000  0.0790550000000 1.0  -0.06
Li     1  0.0704760000000 -0.3007270000000  0.0790550000000 1.0  -0.06
Li     1  0.1254840000000 -0.4367750000000 -0.2185650000000 1.0  -0.03
Li     1 -0.4367750000000  0.1254840000000 -0.2185650000000 1.0  -0.03
O      2 -0.0385740000000  0.3179950000000 -0.0437190000000 1.0   0.24
O      2  0.3179950000000 -0.0385740000000 -0.0437190000000 1.0   0.24
O      2  0.3005470000000 -0.2499330000000 -0.4092790000000 1.0   0.30
O      2 -0.2499330000000  0.3005470000000 -0.4092790000000 1.0   0.30
S      3 -0.3116430000000 -0.3116430000000  0.2442900000000 1.0   0.14
Fe     4  0.5777450000000 -0.0918330000000  0.4643240000000 1.0   3.20
Fe     4 -0.0918330000000  0.5777450000000  0.4643240000000 1.0   3.20
Fe     4  0.2684890000000  0.2684890000000  0.0240910000000 1.0   3.49
END
