TITL LFSO-Li3FeSO2-200911-162221-8943d6 -0.0469 386.345359 -7.92793897E+003 14.8978 14.9685 21 (R3) n - 1
REM
REM Run started: Fri, 11 Sep 2020 22:12:55 +0100 in /lustre/scratch/uccabz1/launch_tmp/launcher_2020-09-11-15-22-19-337872
REM CASTEP 20.1 from code version af48c487+ pr-geom-scf-spinfix Tue Jun 2 15:39:59 2020 +0100
REM Functional Perdew Burke Ernzerhof Relativity Koelling-Harmon Dispersion off
REM Cut-off 340.0000 eV Grid scale 1.7500 Gmax 16.5316 1/A FBSC none
REM MP grid 3 3 3 Offset 0.000 0.000 0.000 No. kpts 6 Spacing 0.07
REM Total runtime: 21197.4 s
REM Overall efficiency: 97.4444 %
REM
REM
REM
REM compiler GCC version 4.9.2
REM options -cpp -iprefix /lustre/shared/ucl/apps/gcc/4.9.2/bin/../lib/gcc/x86_64-unknown-linux-gnu/4.9.2/ -mtune=corei7 -march=x86-64 -g -Og
REM COMMAND_LINE
REM seed 802503740 -1216094825 966966550 -511059749 -841758149 824423969 -760676782 1012228005 -268994050 1330502523 768545358 -1675695086
REM
REM S 3|1.8|5|6|7|30:31:32(qc=5)
REM O 2|1.5|12|13|15|20:21(qc=5)
REM Li 1|1.3|8|9|10|10U:20(qc=5)
REM Fe 3|2.2|2.0|1.0|8|9|10|40:41:32(qc=5)
REM 
CELL 1.54180    7.94963    7.94963    7.94963  109.49878  109.49878  109.49878
LATT -1
SFAC Li O  S  Fe 
Li     1  0.4055410000000  0.4930930000000  0.0697350000000 1.0   0.01
Li     1  0.0697350000000  0.4055410000000  0.4930930000000 1.0   0.01
Li     1  0.4930930000000  0.0697350000000  0.4055410000000 1.0   0.01
Li     1 -0.1353530000000  0.0005170000000 -0.2854680000000 1.0  -0.03
Li     1 -0.2854680000000 -0.1353530000000  0.0005170000000 1.0  -0.03
Li     1  0.0005170000000 -0.2854680000000 -0.1353530000000 1.0  -0.03
Li     1  0.2431770000000  0.0861470000000 -0.2022580000000 1.0   0.03
Li     1 -0.2022580000000  0.2431770000000  0.0861470000000 1.0   0.03
Li     1  0.0861470000000 -0.2022580000000  0.2431770000000 1.0   0.03
O      2  0.5566930000000 -0.2518800000000  0.1088330000000 1.0   0.45
O      2  0.1088330000000  0.5566930000000 -0.2518800000000 1.0   0.45
O      2 -0.2518800000000  0.1088330000000  0.5566930000000 1.0   0.45
O      2  0.2601870000000 -0.0900130000000  0.1413250000000 1.0   0.35
O      2  0.1413250000000  0.2601870000000 -0.0900130000000 1.0   0.35
O      2 -0.0900130000000  0.1413250000000  0.2601870000000 1.0   0.35
S      3 -0.1983380000000  0.4876660000000 -0.0541590000000 1.0   0.30
S      3 -0.0541590000000 -0.1983380000000  0.4876660000000 1.0   0.30
S      3  0.4876660000000 -0.0541590000000 -0.1983380000000 1.0   0.30
Fe     4  0.3607780000000 -0.1889530000000 -0.0276270000000 1.0   3.85
Fe     4 -0.0276270000000  0.3607780000000 -0.1889530000000 1.0   3.85
Fe     4 -0.1889530000000 -0.0276270000000  0.3607780000000 1.0   3.85
END
