TITL LFSO-Li4Fe2S2O3-200911-114059-aad096 -0.0092 168.495804 -4.44756149E+003 6.00000 6.20546 11 (P2) n - 1
REM
REM Run started: Fri, 11 Sep 2020 12:54:16 +0100 in /lustre/scratch/uccabz1/launch_tmp/launcher_2020-09-11-10-40-57-202521
REM CASTEP 20.1 from code version af48c487+ pr-geom-scf-spinfix Tue Jun 2 15:39:59 2020 +0100
REM Functional Perdew Burke Ernzerhof Relativity Koelling-Harmon Dispersion off
REM Cut-off 340.0000 eV Grid scale 1.7500 Gmax 16.5316 1/A FBSC none
REM MP grid 5 3 2 Offset 0.000 0.000 0.000 No. kpts 10 Spacing 0.07
REM Total runtime: 4507.05 s
REM Overall efficiency: 86.5714 %
REM
REM
REM
REM compiler GCC version 4.9.2
REM options -cpp -iprefix /lustre/shared/ucl/apps/gcc/4.9.2/bin/../lib/gcc/x86_64-unknown-linux-gnu/4.9.2/ -mtune=corei7 -march=x86-64 -g -Og
REM COMMAND_LINE
REM seed -1578702936 818152240 1647480598 -1634858336 627921943 33717881 68031564 923398945 -1800186867 -1044436161 1286589478 1941618350
REM
REM S 3|1.8|5|6|7|30:31:32(qc=5)
REM O 2|1.5|12|13|15|20:21(qc=5)
REM Li 1|1.3|8|9|10|10U:20(qc=5)
REM Fe 3|2.2|2.0|1.0|8|9|10|40:41:32(qc=5)
REM 
CELL 1.54180    2.94578    6.19780    9.22902   90.00000   89.74381   90.00000
LATT -1
SFAC Li O  S  Fe 
Li     1 -0.3529020000000 -0.7628850000000 -0.3295790000000 1.0   0.01
Li     1  0.3529020000000 -0.7628850000000  0.3295790000000 1.0   0.01
Li     1  0.0299910000000 -0.0671700000000 -0.3884800000000 1.0  -0.02
Li     1 -0.0299910000000 -0.0671700000000  0.3884800000000 1.0  -0.02
O      2  0.0325990000000  0.0436130000000  0.1943870000000 1.0   0.24
O      2 -0.0325990000000  0.0436130000000 -0.1943870000000 1.0   0.24
O      2  0.5000000000000  0.0574710000000  0.5000000000000 1.0   0.02
S      3 -0.0322320000000 -0.4009470000000 -0.2123770000000 1.0   0.15
S      3  0.0322320000000 -0.4009470000000  0.2123770000000 1.0   0.15
Fe     4 -0.4711830000000 -0.1479160000000  0.1573260000000 1.0   2.62
Fe     4  0.4711830000000 -0.1479160000000 -0.1573260000000 1.0   2.62
END
