TITL LFSO-Li2Fe3S3O-200912-183812-c4131d -0.0626 274.790919 -8.68177182E+003 20.9834 21.1580 18 (P3m1) n - 1
REM
REM Run started: Sun, 13 Sep 2020 05:52:42 +0100 in /lustre/scratch/uccabz1/launch_tmp/launcher_2020-09-12-17-38-11-276562
REM CASTEP 20.1 from code version af48c487+ pr-geom-scf-spinfix Tue Jun 2 15:39:59 2020 +0100
REM Functional Perdew Burke Ernzerhof Relativity Koelling-Harmon Dispersion off
REM Cut-off 340.0000 eV Grid scale 1.7500 Gmax 16.5316 1/A FBSC none
REM MP grid 3 3 3 Offset 0.000 0.000 0.000 No. kpts 8 Spacing 0.07
REM Total runtime: 40596.9 s
REM Overall efficiency: 89.375 %
REM
REM
REM
REM compiler GCC version 4.9.2
REM options -cpp -iprefix /lustre/shared/ucl/apps/gcc/4.9.2/bin/../lib/gcc/x86_64-unknown-linux-gnu/4.9.2/ -mtune=corei7 -march=x86-64 -g -Og
REM COMMAND_LINE
REM seed 939779607 1908570191 1895205965 -995966809 1650614365 -836777338 29647635 1221306216 -1961405883 -1528388320 1572922674 43027689
REM
REM S 3|1.8|5|6|7|30:31:32(qc=5)
REM O 2|1.5|12|13|15|20:21(qc=5)
REM Li 1|1.3|8|9|10|10U:20(qc=5)
REM Fe 3|2.2|2.0|1.0|8|9|10|40:41:32(qc=5)
REM 
CELL 1.54180    7.02280    7.02280    6.43355   90.00000   90.00000  120.00000
LATT -1
SFAC Li O  S  Fe 
Li     1  0.1487640000000 -0.1481640000000  0.2318850000000 1.0   0.07
Li     1 -0.2969280000000 -0.1487640000000  0.2318850000000 1.0   0.07
Li     1  0.1481640000000  0.2969280000000  0.2318850000000 1.0   0.07
Li     1 -0.3333330000000  0.3333330000000  0.1551550000000 1.0   0.03
O      2  0.3333330000000 -0.3333330000000 -0.1237730000000 1.0   0.35
O      2 -0.0000000000000  0.0000000000000 -0.5626180000000 1.0   0.29
S      3  0.0034970000000  0.5005880000000  0.4306290000000 1.0   0.24
S      3  0.4970900000000 -0.0034970000000  0.4306290000000 1.0   0.24
S      3 -0.5005880000000 -0.4970900000000  0.4306290000000 1.0   0.24
S      3 -0.1618710000000 -0.3248270000000 -0.0659750000000 1.0   0.20
S      3 -0.1629560000000  0.1618710000000 -0.0659750000000 1.0   0.20
S      3  0.3248270000000  0.1629560000000 -0.0659750000000 1.0   0.20
Fe     4 -0.1537010000000  0.1515680000000 -0.4251120000000 1.0   3.14
Fe     4  0.3052690000000  0.1537010000000 -0.4251120000000 1.0   3.14
Fe     4 -0.1515680000000 -0.3052690000000 -0.4251120000000 1.0   3.14
Fe     4  0.4873400000000  0.5144400000000 -0.2073570000000 1.0   3.12
Fe     4  0.0271010000000 -0.4873400000000 -0.2073570000000 1.0   3.12
Fe     4 -0.5144400000000 -0.0271010000000 -0.2073570000000 1.0   3.12
END
