TITL LFSO-Li6FeS2O2-200920-202130-98e0d4 -0.0242 423.614753 -7.09385608E+003 8.00000 8.34387 22 (C2/c) n - 1
REM
REM Run started: Mon, 21 Sep 2020 11:22:48 +0100 in /lustre/scratch/uccabz1/launch_tmp/launcher_2020-09-20-19-21-28-316940
REM CASTEP 20.1 from code version af48c487+ pr-geom-scf-spinfix Tue Jun 2 15:39:59 2020 +0100
REM Functional Perdew Burke Ernzerhof Relativity Koelling-Harmon Dispersion off
REM Cut-off 340.0000 eV Grid scale 1.7500 Gmax 16.5316 1/A FBSC none
REM MP grid 3 4 2 Offset 0.000 0.000 0.000 No. kpts 12 Spacing 0.07
REM Total runtime: 58512.7 s
REM Overall efficiency: 98.5833 %
REM
REM
REM
REM compiler GCC version 4.9.2
REM options -cpp -iprefix /lustre/shared/ucl/apps/gcc/4.9.2/bin/../lib/gcc/x86_64-unknown-linux-gnu/4.9.2/ -mtune=corei7 -march=x86-64 -g -Og
REM COMMAND_LINE
REM seed -730525587 -1011972551 1290275622 34611977 17903417 -575528686 948362181 -461466120 1443735895 -1839870350 -291868569 -1833076031
REM
REM S 3|1.8|5|6|7|30:31:32(qc=5)
REM O 2|1.5|12|13|15|20:21(qc=5)
REM Li 1|1.3|8|9|10|10U:20(qc=5)
REM Fe 3|2.2|2.0|1.0|8|9|10|40:41:32(qc=5)
REM 
CELL 1.54180    5.97986    6.33027   15.57390   55.08971   78.93148   61.81484
LATT -1
SFAC Li O  S  Fe 
Li     1 -0.4947040000000 -0.0857030000000  0.4492150000000 1.0  -0.03
Li     1 -0.1311920000000 -0.4142970000000  0.0507850000000 1.0  -0.03
Li     1  0.4947040000000  0.0857030000000 -0.4492150000000 1.0  -0.03
Li     1  0.1311920000000  0.4142970000000 -0.0507850000000 1.0  -0.03
Li     1 -0.6488970000000  0.0039500000000  0.1591760000000 1.0   0.01
Li     1 -0.4857710000000  0.4960500000000  0.3408240000000 1.0   0.01
Li     1  0.6488970000000 -0.0039500000000 -0.1591760000000 1.0   0.01
Li     1  0.4857710000000 -0.4960500000000 -0.3408240000000 1.0   0.01
Li     1 -0.1590950000000  0.1222370000000  0.3120190000000 1.0  -0.02
Li     1  0.2751610000000 -0.6222370000000  0.1879810000000 1.0  -0.02
Li     1  0.1590950000000 -0.1222370000000 -0.3120190000000 1.0  -0.02
Li     1 -0.2751610000000  0.6222370000000 -0.1879810000000 1.0  -0.02
O      2  0.2367930000000  0.4025050000000  0.0624910000000 1.0   0.15
O      2 -0.2982110000000  0.0974950000000  0.4375090000000 1.0   0.15
O      2 -0.2367930000000 -0.4025050000000 -0.0624910000000 1.0   0.15
O      2  0.2982110000000 -0.0974950000000 -0.4375090000000 1.0   0.15
S      3  0.4533390000000  0.4253620000000 -0.1637690000000 1.0   0.09
S      3 -0.2850690000000  0.0746380000000 -0.3362310000000 1.0   0.09
S      3 -0.4533390000000 -0.4253620000000  0.1637690000000 1.0   0.09
S      3  0.2850690000000 -0.0746380000000  0.3362310000000 1.0   0.09
Fe     4  0.5000000000000 -0.5000000000000 -0.0000000000000 1.0   3.60
Fe     4 -0.0000000000000 -0.0000000000000 -0.5000000000000 1.0   3.60
END
