TITL LFSO-Li6FeSO3-200909-215353-953fb8 -0.0014 135.667723 -3.68073658E+003 3.58990 3.67451 11 (P-1) n - 1
REM
REM Run started: Wed, 09 Sep 2020 22:23:43 +0100 in /lustre/scratch/uccabz1/launch_tmp/launcher_2020-09-09-20-53-52-287236
REM CASTEP 20.1 from code version af48c487+ pr-geom-scf-spinfix Tue Jun 2 15:39:59 2020 +0100
REM Functional Perdew Burke Ernzerhof Relativity Koelling-Harmon Dispersion off
REM Cut-off 340.0000 eV Grid scale 1.7500 Gmax 16.5316 1/A FBSC none
REM MP grid 5 4 3 Offset 0.000 0.000 0.000 No. kpts 30 Spacing 0.07
REM Total runtime: 2507.8 s
REM Overall efficiency: 94.2 %
REM
REM
REM
REM compiler GCC version 4.9.2
REM options -cpp -iprefix /lustre/shared/ucl/apps/gcc/4.9.2/bin/../lib/gcc/x86_64-unknown-linux-gnu/4.9.2/ -mtune=corei7 -march=x86-64 -g -Og
REM COMMAND_LINE
REM seed 810643770 1157076275 -750159891 -2104251601 -903499268 1573045890 -1285344990 389966211 -2117683697 893541624 -1090136751 1931532082
REM
REM S 3|1.8|5|6|7|30:31:32(qc=5)
REM O 2|1.5|12|13|15|20:21(qc=5)
REM Li 1|1.3|8|9|10|10U:20(qc=5)
REM Fe 3|2.2|2.0|1.0|8|9|10|40:41:32(qc=5)
REM 
CELL 1.54180    3.72025    5.39059    8.33902  122.67804  100.94719   93.15238
LATT -1
SFAC Li O  S  Fe 
Li     1 -0.4244090000000  0.4458430000000 -0.3302230000000 1.0  -0.04
Li     1  0.4244090000000 -0.4458430000000  0.3302230000000 1.0  -0.04
Li     1  0.0788110000000 -0.1004740000000 -0.1513270000000 1.0  -0.02
Li     1 -0.0788110000000  0.1004740000000  0.1513270000000 1.0  -0.02
Li     1 -0.2712730000000  0.3786660000000 -0.0008170000000 1.0  -0.01
Li     1  0.2712730000000 -0.3786660000000  0.0008170000000 1.0  -0.01
O      2  0.2363970000000  0.3032010000000  0.0528070000000 1.0   0.00
O      2 -0.2363970000000 -0.3032010000000 -0.0528070000000 1.0   0.00
O      2  0.5000000000000  0.0000000000000  0.5000000000000 1.0   0.26
S      3  0.0000000000000 -0.5000000000000  0.5000000000000 1.0   0.10
Fe     4  0.0000000000000  0.0000000000000 -0.5000000000000 1.0   3.35
END
