TITL LFSO-Li2Fe2SO3-200913-084323-f4957b 0.0051 245.363729 -7.48556155E+003 -14.1910 14.9827 16 (P3) n - 1
REM
REM Run started: Sun, 13 Sep 2020 18:47:28 +0100 in /lustre/scratch/uccabz1/launch_tmp/launcher_2020-09-13-16-30-53-769852
REM CASTEP 20.1 from code version af48c487+ pr-geom-scf-spinfix Tue Jun 2 15:39:59 2020 +0100
REM Functional Perdew Burke Ernzerhof Relativity Koelling-Harmon Dispersion off
REM Cut-off 340.0000 eV Grid scale 1.7500 Gmax 16.5316 1/A FBSC none
REM MP grid 3 3 2 Offset 0.000 0.000 0.000 No. kpts 5 Spacing 0.07
REM Total runtime: 31823.8 s
REM Overall efficiency: 80.75 %
REM
REM
REM
REM compiler GCC version 4.9.2
REM options -cpp -iprefix /lustre/shared/ucl/apps/gcc/4.9.2/bin/../lib/gcc/x86_64-unknown-linux-gnu/4.9.2/ -mtune=corei7 -march=x86-64 -g -Og
REM COMMAND_LINE
REM seed 1081307905 800023216 3667786 1289667409 2125762472 1667722277 1993672481 -1461566828 144266579 -2046229678 1983781658 868746176
REM
REM S 3|1.8|5|6|7|30:31:32(qc=5)
REM O 2|1.5|12|13|15|20:21(qc=5)
REM Li 1|1.3|8|9|10|10U:20(qc=5)
REM Fe 3|2.2|2.0|1.0|8|9|10|40:41:32(qc=5)
REM 
CELL 1.54180    6.06996    6.06996    7.68967   90.00000   90.00000  120.00000
LATT -1
SFAC Li O  S  Fe 
Li     1  0.2293880000000  0.2933490000000 -0.0666130000000 1.0   0.10
Li     1  0.0639610000000 -0.2293880000000 -0.0666130000000 1.0   0.10
Li     1 -0.2933490000000 -0.0639610000000 -0.0666130000000 1.0   0.10
Li     1 -0.3333330000000  0.3333330000000  0.2702410000000 1.0   0.10
O      2  0.4939690000000  0.0323270000000  0.4182460000000 1.0  -0.33
O      2 -0.4616420000000 -0.4939690000000  0.4182460000000 1.0  -0.33
O      2 -0.0323270000000  0.4616420000000  0.4182460000000 1.0  -0.33
O      2 -0.1863250000000 -0.2634950000000 -0.2389190000000 1.0  -0.02
O      2 -0.0771700000000  0.1863250000000 -0.2389190000000 1.0  -0.02
O      2  0.2634950000000  0.0771700000000 -0.2389190000000 1.0  -0.02
S      3  0.0000000000000 -0.0000000000000  0.1617050000000 1.0  -0.09
S      3  0.0000000000000 -0.0000000000000 -0.3309430000000 1.0   0.00
Fe     4  0.1799560000000 -0.2165480000000  0.3098130000000 1.0  -3.25
Fe     4 -0.3965040000000 -0.1799560000000  0.3098130000000 1.0  -3.25
Fe     4  0.2165480000000  0.3965040000000  0.3098130000000 1.0  -3.25
Fe     4 -0.3333330000000  0.3333330000000 -0.4255430000000 1.0  -3.69
END
