TITL LFSO-Li5FeS3O-200910-104552-dcd232 -0.0328 354.869263 -6.42599933E+003 7.87103 8.01474 20 (R3) n - 1
REM
REM Run started: Thu, 10 Sep 2020 16:02:07 +0100 in /lustre/scratch/uccabz1/launch_tmp/launcher_2020-09-10-09-45-50-646753
REM CASTEP 20.1 from code version af48c487+ pr-geom-scf-spinfix Tue Jun 2 15:39:59 2020 +0100
REM Functional Perdew Burke Ernzerhof Relativity Koelling-Harmon Dispersion off
REM Cut-off 340.0000 eV Grid scale 1.7500 Gmax 16.5316 1/A FBSC none
REM MP grid 3 3 3 Offset 0.000 0.000 0.000 No. kpts 6 Spacing 0.07
REM Total runtime: 19322 s
REM Overall efficiency: 94.5 %
REM
REM
REM
REM compiler GCC version 4.9.2
REM options -cpp -iprefix /lustre/shared/ucl/apps/gcc/4.9.2/bin/../lib/gcc/x86_64-unknown-linux-gnu/4.9.2/ -mtune=corei7 -march=x86-64 -g -Og
REM COMMAND_LINE
REM seed -1322297557 -305200579 1314519324 1742105700 1155298778 2121803883 1477518827 844626888 1342957890 -2077698950 588311849 25615742
REM
REM S 3|1.8|5|6|7|30:31:32(qc=5)
REM O 2|1.5|12|13|15|20:21(qc=5)
REM Li 1|1.3|8|9|10|10U:20(qc=5)
REM Fe 3|2.2|2.0|1.0|8|9|10|40:41:32(qc=5)
REM 
CELL 1.54180    7.08210    7.08210    7.08210   91.43770   91.43769   91.43769
LATT -1
SFAC Li O  S  Fe 
Li     1  0.1652460000000 -0.0593620000000 -0.1396720000000 1.0   0.02
Li     1 -0.0593620000000 -0.1396720000000  0.1652460000000 1.0   0.02
Li     1 -0.1396720000000  0.1652460000000 -0.0593620000000 1.0   0.02
Li     1  0.3864750000000  0.2179050000000 -0.3876410000000 1.0   0.01
Li     1  0.2179050000000 -0.3876410000000  0.3864750000000 1.0   0.01
Li     1 -0.3876410000000  0.3864750000000  0.2179050000000 1.0   0.01
Li     1 -0.4137030000000 -0.0431480000000  0.3368250000000 1.0  -0.01
Li     1 -0.0431480000000  0.3368250000000 -0.4137030000000 1.0  -0.01
Li     1  0.3368250000000 -0.4137030000000 -0.0431480000000 1.0  -0.01
Li     1  0.1690040000000  0.1690040000000  0.1690040000000 1.0  -0.01
O      2 -0.0953350000000 -0.0953350000000 -0.0953350000000 1.0   0.27
O      2  0.4077260000000  0.4077260000000  0.4077260000000 1.0   0.23
S      3  0.2955340000000 -0.1502140000000  0.1682330000000 1.0   0.06
S      3 -0.1502140000000  0.1682330000000  0.2955340000000 1.0   0.06
S      3  0.1682330000000  0.2955340000000 -0.1502140000000 1.0   0.06
S      3 -0.1468960000000 -0.3405410000000  0.4589780000000 1.0   0.33
S      3 -0.3405410000000  0.4589780000000 -0.1468960000000 1.0   0.33
S      3  0.4589780000000 -0.1468960000000 -0.3405410000000 1.0   0.33
Fe     4 -0.2424630000000 -0.2424630000000 -0.2424630000000 1.0   3.11
Fe     4 -0.4402590000000 -0.4402590000000 -0.4402590000000 1.0   3.07
END
