TITL LFSO-Li2Fe4S4O-200911-215954-aa2687 0.0320 154.030976 -5.50466975E+003 0.338833E-02 0.420772E-02 11 (P222) n - 1
REM
REM Run started: Fri, 11 Sep 2020 22:28:08 +0100 in /lustre/scratch/uccabz1/launch_tmp/launcher_2020-09-11-20-59-52-422489
REM CASTEP 20.1 from code version af48c487+ pr-geom-scf-spinfix Tue Jun 2 15:39:59 2020 +0100
REM Functional Perdew Burke Ernzerhof Relativity Koelling-Harmon Dispersion off
REM Cut-off 340.0000 eV Grid scale 1.7500 Gmax 16.5316 1/A FBSC none
REM MP grid 4 3 2 Offset 0.000 0.000 0.000 No. kpts 4 Spacing 0.07
REM Total runtime: 1722.97 s
REM Overall efficiency: 88 %
REM
REM
REM
REM compiler GCC version 4.9.2
REM options -cpp -iprefix /lustre/shared/ucl/apps/gcc/4.9.2/bin/../lib/gcc/x86_64-unknown-linux-gnu/4.9.2/ -mtune=corei7 -march=x86-64 -g -Og
REM COMMAND_LINE
REM seed -717129707 505692356 -1590106942 -199034153 -1287064018 -1467726568 -221592877 1678817928 1625511966 -1477517708 -423812291 -1601624206
REM
REM S 3|1.8|5|6|7|30:31:32(qc=5)
REM O 2|1.5|12|13|15|20:21(qc=5)
REM Li 1|1.3|8|9|10|10U:20(qc=5)
REM Fe 3|2.2|2.0|1.0|8|9|10|40:41:32(qc=5)
REM 
CELL 1.54180    3.78148    4.97436    8.18859   90.00000   90.00000   90.00000
LATT -1
SFAC Li O  S  Fe 
Li     1  0.0000000000000 -0.2440020000000  0.5000000000000 1.0
Li     1  0.0000000000000  0.2440020000000  0.5000000000000 1.0
O      2  0.0000000000000  0.5000000000000  0.0000000000000 1.0
S      3 -0.2669530000000  0.2181480000000 -0.2526940000000 1.0
S      3 -0.2669530000000 -0.2181480000000  0.2526940000000 1.0
S      3  0.2669530000000 -0.2181480000000 -0.2526940000000 1.0
S      3  0.2669530000000  0.2181480000000  0.2526940000000 1.0
Fe     4 -0.2404880000000  0.1745790000000  0.1098820000000 1.0
Fe     4 -0.2404880000000 -0.1745790000000 -0.1098820000000 1.0
Fe     4  0.2404880000000 -0.1745790000000  0.1098820000000 1.0
Fe     4  0.2404880000000  0.1745790000000 -0.1098820000000 1.0
END
