TITL LFSO-Li4FeSO2-200910-083422-68ccc3 0.0456 353.300242 -8.52816002E+003 12.0000 12.1354 24 (R3) n - 1
REM
REM Run started: Thu, 10 Sep 2020 12:24:12 +0100 in /lustre/scratch/uccabz1/launch_tmp/launcher_2020-09-10-10-00-12-615812
REM CASTEP 20.1 from code version af48c487+ pr-geom-scf-spinfix Tue Jun 2 15:39:59 2020 +0100
REM Functional Perdew Burke Ernzerhof Relativity Koelling-Harmon Dispersion off
REM Cut-off 340.0000 eV Grid scale 1.7500 Gmax 16.5316 1/A FBSC none
REM MP grid 3 3 3 Offset 0.000 0.000 0.000 No. kpts 6 Spacing 0.07
REM Total runtime: 14426.4 s
REM Overall efficiency: 95.75 %
REM
REM
REM
REM compiler GCC version 4.9.2
REM options -cpp -iprefix /lustre/shared/ucl/apps/gcc/4.9.2/bin/../lib/gcc/x86_64-unknown-linux-gnu/4.9.2/ -mtune=corei7 -march=x86-64 -g -Og
REM COMMAND_LINE
REM seed 225505621 -1723476357 328940038 2078731393 1963154283 2067802756 464814614 57391982 -1313827000 -727555912 -464914759 -398240785
REM
REM S 3|1.8|5|6|7|30:31:32(qc=5)
REM O 2|1.5|12|13|15|20:21(qc=5)
REM Li 1|1.3|8|9|10|10U:20(qc=5)
REM Fe 3|2.2|2.0|1.0|8|9|10|40:41:32(qc=5)
REM 
CELL 1.54180    7.06941    7.06941    7.06941   89.82559   89.82559   89.82559
LATT -1
SFAC Li O  S  Fe 
Li     1  0.1085140000000  0.3139430000000 -0.2226760000000 1.0  -0.00
Li     1  0.3139430000000 -0.2226760000000  0.1085140000000 1.0  -0.00
Li     1 -0.2226760000000  0.1085140000000  0.3139430000000 1.0  -0.00
Li     1 -0.0623590000000 -0.5170940000000 -0.0085130000000 1.0  -0.00
Li     1 -0.5170940000000 -0.0085130000000 -0.0623590000000 1.0  -0.00
Li     1 -0.0085130000000 -0.0623590000000 -0.5170940000000 1.0  -0.00
Li     1  0.2869940000000 -0.3889240000000 -0.2354550000000 1.0   0.01
Li     1 -0.3889240000000 -0.2354550000000  0.2869940000000 1.0   0.01
Li     1 -0.2354550000000  0.2869940000000 -0.3889240000000 1.0   0.01
Li     1 -0.1408550000000  0.6367520000000 -0.4606380000000 1.0  -0.01
Li     1  0.6367520000000 -0.4606380000000 -0.1408550000000 1.0  -0.01
Li     1 -0.4606380000000 -0.1408550000000  0.6367520000000 1.0  -0.01
O      2  0.1826380000000  0.4230000000000  0.0429880000000 1.0   0.30
O      2  0.4230000000000  0.0429880000000  0.1826380000000 1.0   0.30
O      2  0.0429880000000  0.1826380000000  0.4230000000000 1.0   0.30
O      2  0.4674590000000 -0.2536380000000 -0.1202150000000 1.0   0.02
O      2 -0.2536380000000 -0.1202150000000  0.4674590000000 1.0   0.02
O      2 -0.1202150000000  0.4674590000000 -0.2536380000000 1.0   0.02
S      3  0.2291810000000 -0.2952270000000  0.4396800000000 1.0   0.15
S      3 -0.2952270000000  0.4396800000000  0.2291810000000 1.0   0.15
S      3  0.4396800000000  0.2291810000000 -0.2952270000000 1.0   0.15
Fe     4  0.4187380000000  0.3223220000000  0.1329200000000 1.0   3.54
Fe     4  0.3223220000000  0.1329200000000  0.4187380000000 1.0   3.54
Fe     4  0.1329200000000  0.4187380000000  0.3223220000000 1.0   3.54
END
