TITL LFSO-Li4Fe3S3O2-200927-114701-6ebcc2 -0.0009 182.426150 -5.17840919E+003 8.88912 9.19657 12 (C2) n - 1
REM
REM Run started: Mon, 28 Sep 2020 21:03:02 +0100 in /lustre/scratch/uccabz1/launch_tmp/launcher_2020-09-27-10-46-59-004915
REM CASTEP 20.1 from code version af48c487+ pr-geom-scf-spinfix Tue Jun 2 15:39:59 2020 +0100
REM Functional Perdew Burke Ernzerhof Relativity Koelling-Harmon Dispersion off
REM Cut-off 340.0000 eV Grid scale 1.7500 Gmax 16.5316 1/A FBSC none
REM MP grid 5 4 5 Offset 0.000 0.000 0.000 No. kpts 50 Spacing 0.07
REM Total runtime: 80972.3 s
REM Overall efficiency: 98.2727 %
REM
REM
REM
REM compiler GCC version 4.9.2
REM options -cpp -iprefix /lustre/shared/ucl/apps/gcc/4.9.2/bin/../lib/gcc/x86_64-unknown-linux-gnu/4.9.2/ -mtune=corei7 -march=x86-64 -g -Og
REM COMMAND_LINE
REM seed -42770248 -1920140804 -1743542699 766836894 547271073 373913276 -1372585563 -282139687 -2060803205 361754832 -2061694642 1354189018
REM
REM S 3|1.8|5|6|7|30:31:32(qc=5)
REM O 2|1.5|12|13|15|20:21(qc=5)
REM Li 1|1.3|8|9|10|10U:20(qc=5)
REM Fe 3|2.2|2.0|1.0|8|9|10|40:41:32(qc=5)
REM 
CELL 1.54180   11.58127   11.58127    6.65704   46.15462  147.66666  155.85217
LATT -1
SFAC Li O  S  Fe 
Li     1  0.0930370000000 -0.4483310000000 -0.0419160000000 1.0  -0.02
Li     1 -0.4064140000000  0.1349540000000  0.0419160000000 1.0  -0.02
Li     1 -0.1026830000000  0.0736180000000  0.3092550000000 1.0   0.01
Li     1 -0.2356360000000  0.5880620000000 -0.3092550000000 1.0   0.01
O      2  0.3826790000000 -0.1289290000000 -0.1795610000000 1.0   0.15
O      2  0.0506330000000  0.5622410000000  0.1795610000000 1.0   0.15
S      3 -0.3570610000000 -0.2909770000000 -0.3710520000000 1.0   0.10
S      3  0.0800750000000  0.0139910000000  0.3710520000000 1.0   0.10
S      3 -0.3124280000000  0.1875720000000 -0.5000000000000 1.0   0.16
Fe     4  0.1610050000000 -0.0729700000000  0.2987850000000 1.0   2.80
Fe     4 -0.3717550000000 -0.1377800000000 -0.2987850000000 1.0   2.80
Fe     4  0.1556770000000 -0.3443230000000  0.5000000000000 1.0   2.65
END
