TITL LFSO-Li4Fe3S3O2-200927-122058-bbfd65 -0.0859 380.190559 -1.03560343E+004 19.9765 20.4268 24 (P21) n - 1
REM
REM Run started: Mon, 28 Sep 2020 22:54:17 +0100 in /lustre/scratch/uccabz1/launch_tmp/launcher_2020-09-28-13-17-16-710543
REM CASTEP 20.1 from code version af48c487+ pr-geom-scf-spinfix Tue Jun 2 15:39:59 2020 +0100
REM Functional Perdew Burke Ernzerhof Relativity Koelling-Harmon Dispersion off
REM Cut-off 340.0000 eV Grid scale 1.7500 Gmax 16.5316 1/A FBSC none
REM MP grid 3 3 2 Offset 0.000 0.000 0.000 No. kpts 5 Spacing 0.07
REM Total runtime: 66182.8 s
REM Overall efficiency: 75.3846 %
REM
REM
REM
REM compiler GCC version 4.9.2
REM options -cpp -iprefix /lustre/shared/ucl/apps/gcc/4.9.2/bin/../lib/gcc/x86_64-unknown-linux-gnu/4.9.2/ -mtune=corei7 -march=x86-64 -g -Og
REM COMMAND_LINE
REM seed -1101639050 -1097022881 -1971266980 1704235004 1497116227 -487959807 -1608926444 -564876545 -171506739 -573203701 1178494589 -1284624594
REM
REM S 3|1.8|5|6|7|30:31:32(qc=5)
REM O 2|1.5|12|13|15|20:21(qc=5)
REM Li 1|1.3|8|9|10|10U:20(qc=5)
REM Fe 3|2.2|2.0|1.0|8|9|10|40:41:32(qc=5)
REM 
CELL 1.54180    6.10753    6.51647   11.66378   90.00000   90.00000  125.01517
LATT -1
SFAC Li O  S  Fe 
Li     1  0.5681630000000  0.1426240000000  0.0742250000000 1.0  -0.03
Li     1 -0.5681630000000 -0.1426240000000  0.5742250000000 1.0  -0.03
Li     1 -0.0583050000000 -0.5806690000000  0.2706560000000 1.0  -0.01
Li     1  0.0583050000000  0.5806690000000 -0.2293440000000 1.0  -0.01
Li     1 -0.2778530000000  0.3616050000000  0.5442660000000 1.0  -0.00
Li     1  0.2778530000000 -0.3616050000000  0.0442660000000 1.0  -0.00
Li     1  0.0348510000000 -0.1701720000000 -0.4135780000000 1.0  -0.01
Li     1 -0.0348510000000  0.1701720000000  0.0864220000000 1.0  -0.01
O      2 -0.3521660000000 -0.1488810000000  0.1126850000000 1.0   0.17
O      2  0.3521660000000  0.1488810000000 -0.3873150000000 1.0   0.17
O      2  0.0948300000000  0.5497350000000 -0.3920840000000 1.0   0.18
O      2 -0.0948300000000 -0.5497350000000  0.1079160000000 1.0   0.18
S      3  0.3276960000000  0.3290560000000  0.2144050000000 1.0   0.22
S      3 -0.3276960000000 -0.3290560000000 -0.2855950000000 1.0   0.22
S      3  0.3965100000000 -0.0287280000000 -0.1225240000000 1.0   0.14
S      3 -0.3965100000000  0.0287280000000  0.3774760000000 1.0   0.14
S      3 -0.1406800000000 -0.3120790000000  0.3959150000000 1.0   0.13
S      3  0.1406800000000  0.3120790000000 -0.1040850000000 1.0   0.13
Fe     4  0.2094810000000  0.3451000000000 -0.3882020000000 1.0   3.41
Fe     4 -0.2094810000000 -0.3451000000000  0.1117980000000 1.0   3.41
Fe     4 -0.2316510000000  0.0100380000000 -0.1864430000000 1.0   3.23
Fe     4  0.2316510000000 -0.0100380000000  0.3135570000000 1.0   3.23
Fe     4  0.3765840000000  0.2535940000000 -0.2281080000000 1.0   2.57
Fe     4 -0.3765840000000 -0.2535940000000  0.2718920000000 1.0   2.57
END
