TITL LFSO-Li4Fe3SO4-200928-151341-7ffa79 0.0023 161.447168 -5.44401544E+003 11.8753 12.1710 12 (P3) n - 1
REM
REM Run started: Mon, 28 Sep 2020 16:01:23 +0100 in /lustre/scratch/uccabz1/launch_tmp/launcher_2020-09-28-14-13-40-260785
REM CASTEP 20.1 from code version af48c487+ pr-geom-scf-spinfix Tue Jun 2 15:39:59 2020 +0100
REM Functional Perdew Burke Ernzerhof Relativity Koelling-Harmon Dispersion off
REM Cut-off 340.0000 eV Grid scale 1.7500 Gmax 16.5316 1/A FBSC none
REM MP grid 4 3 3 Offset 0.000 0.000 0.000 No. kpts 10 Spacing 0.07
REM Total runtime: 3960.5 s
REM Overall efficiency: 80.6667 %
REM
REM
REM
REM compiler GCC version 4.9.2
REM options -cpp -iprefix /lustre/shared/ucl/apps/gcc/4.9.2/bin/../lib/gcc/x86_64-unknown-linux-gnu/4.9.2/ -mtune=corei7 -march=x86-64 -g -Og
REM COMMAND_LINE
REM seed 352435330 1278692123 -1804588393 -1381708100 -2041369460 -584827835 245625351 1398050136 -1170786043 163971799 -531802829 -543143856
REM
REM S 3|1.8|5|6|7|30:31:32(qc=5)
REM O 2|1.5|12|13|15|20:21(qc=5)
REM Li 1|1.3|8|9|10|10U:20(qc=5)
REM Fe 3|2.2|2.0|1.0|8|9|10|40:41:32(qc=5)
REM 
CELL 1.54180    3.93872    6.87975    6.87975  120.00000   90.00000   90.00000
LATT -1
SFAC Li O  S  Fe 
Li     1 -0.0672020000000 -0.0884240000000  0.3340860000000 1.0  -0.12
Li     1 -0.0672020000000 -0.3340860000000 -0.4225100000000 1.0  -0.12
Li     1 -0.0672020000000  0.4225100000000  0.0884240000000 1.0  -0.12
Li     1 -0.0929530000000 -0.0000000000000  0.0000000000000 1.0   0.01
O      2 -0.0849290000000  0.3736590000000  0.3371850000000 1.0   0.25
O      2 -0.0849290000000 -0.3371850000000  0.0364740000000 1.0   0.25
O      2 -0.0849290000000 -0.0364740000000 -0.3736590000000 1.0   0.25
O      2  0.4089750000000  0.3333330000000 -0.3333330000000 1.0   0.41
S      3 -0.5927200000000 -0.0000000000000  0.0000000000000 1.0   0.20
Fe     4  0.4314290000000 -0.3768740000000 -0.0660010000000 1.0   3.63
Fe     4  0.4314290000000  0.0660010000000 -0.3108730000000 1.0   3.63
Fe     4  0.4314290000000  0.3108730000000  0.3768740000000 1.0   3.63
END
