TITL LFSO-Li4Fe3S3O2-200927-102632-877839 -0.0019 294.392793 -5.17616883E+003 -9.98685 10.2636 12 (P2/m) n - 1
REM
REM Run started: Mon, 28 Sep 2020 13:56:13 +0100 in /lustre/scratch/uccabz1/launch_tmp/launcher_2020-09-27-09-26-30-476121
REM CASTEP 20.1 from code version af48c487+ pr-geom-scf-spinfix Tue Jun 2 15:39:59 2020 +0100
REM Functional Perdew Burke Ernzerhof Relativity Koelling-Harmon Dispersion off
REM Cut-off 340.0000 eV Grid scale 1.7500 Gmax 16.5316 1/A FBSC none
REM MP grid 3 3 3 Offset 0.000 0.000 0.000 No. kpts 10 Spacing 0.07
REM Total runtime: 57928.3 s
REM Overall efficiency: 90 %
REM
REM
REM
REM compiler GCC version 4.9.2
REM options -cpp -iprefix /lustre/shared/ucl/apps/gcc/4.9.2/bin/../lib/gcc/x86_64-unknown-linux-gnu/4.9.2/ -mtune=corei7 -march=x86-64 -g -Og
REM COMMAND_LINE
REM seed -343008555 -1786383074 -90659932 -860594590 -300398069 1794122406 -1967110743 -1602539763 -914369010 1252038578 1488778565 703888168
REM
REM S 3|1.8|5|6|7|30:31:32(qc=5)
REM O 2|1.5|12|13|15|20:21(qc=5)
REM Li 1|1.3|8|9|10|10U:20(qc=5)
REM Fe 3|2.2|2.0|1.0|8|9|10|40:41:32(qc=5)
REM 
CELL 1.54180    6.32900    6.57072    7.18860  100.01268   90.00000   90.00000
LATT -1
SFAC Li O  S  Fe 
Li     1  0.2715850000000 -0.3774270000000  0.3196620000000 1.0   0.02
Li     1  0.2715850000000  0.3774270000000 -0.3196620000000 1.0   0.02
Li     1 -0.2715850000000  0.3774270000000 -0.3196620000000 1.0   0.02
Li     1 -0.2715850000000 -0.3774270000000  0.3196620000000 1.0   0.02
O      2  0.5000000000000 -0.1910520000000  0.3957330000000 1.0  -0.27
O      2 -0.5000000000000  0.1910520000000 -0.3957330000000 1.0  -0.27
S      3  0.5000000000000  0.3131470000000  0.1506410000000 1.0  -0.14
S      3 -0.5000000000000 -0.3131470000000 -0.1506410000000 1.0  -0.14
S      3  0.0000000000000 -0.5000000000000  0.5000000000000 1.0  -0.22
Fe     4 -0.5000000000000  0.0760830000000  0.3400500000000 1.0  -3.10
Fe     4  0.5000000000000 -0.0760830000000 -0.3400500000000 1.0  -3.10
Fe     4  0.5000000000000  0.0000000000000  0.0000000000000 1.0  -2.82
END
