TITL LFSO-Li4Fe2S3O2-200911-060023-7cd8c1 0.0653 389.792077 -8.62426710E+003 13.9695 14.9172 22 (P42) n - 1
REM
REM Run started: Fri, 11 Sep 2020 08:00:57 +0100 in /lustre/scratch/uccabz1/launch_tmp/launcher_2020-09-11-05-00-21-717965
REM CASTEP 20.1 from code version af48c487+ pr-geom-scf-spinfix Tue Jun 2 15:39:59 2020 +0100
REM Functional Perdew Burke Ernzerhof Relativity Koelling-Harmon Dispersion off
REM Cut-off 340.0000 eV Grid scale 1.7500 Gmax 16.5316 1/A FBSC none
REM MP grid 3 2 2 Offset 0.000 0.000 0.000 No. kpts 2 Spacing 0.07
REM Total runtime: 7292.06 s
REM Overall efficiency: 83.7143 %
REM
REM
REM
REM compiler GCC version 4.9.2
REM options -cpp -iprefix /lustre/shared/ucl/apps/gcc/4.9.2/bin/../lib/gcc/x86_64-unknown-linux-gnu/4.9.2/ -mtune=corei7 -march=x86-64 -g -Og
REM COMMAND_LINE
REM seed -1225064515 1821507133 1362770279 1647530063 -844199129 -882243888 -1018858099 1826583399 -1497971984 -691811961 -1491343924 117876836
REM
REM S 3|1.8|5|6|7|30:31:32(qc=5)
REM O 2|1.5|12|13|15|20:21(qc=5)
REM Li 1|1.3|8|9|10|10U:20(qc=5)
REM Fe 3|2.2|2.0|1.0|8|9|10|40:41:32(qc=5)
REM 
CELL 1.54180    5.98870    8.06771    8.06771   90.00000   90.00000   90.00000
LATT -1
SFAC Li O  S  Fe 
Li     1 -0.2938430000000 -0.2723170000000  0.4399210000000 1.0   0.00
Li     1 -0.2938430000000  0.2723170000000 -0.4399210000000 1.0   0.00
Li     1  0.2061570000000  0.4399210000000  0.2723170000000 1.0   0.00
Li     1  0.2061570000000 -0.4399210000000 -0.2723170000000 1.0   0.00
Li     1  0.1445670000000 -0.2026160000000  0.3261120000000 1.0  -0.00
Li     1  0.1445670000000  0.2026160000000 -0.3261120000000 1.0  -0.00
Li     1 -0.3554330000000  0.3261120000000  0.2026160000000 1.0  -0.00
Li     1 -0.3554330000000 -0.3261120000000 -0.2026160000000 1.0  -0.00
O      2 -0.3597180000000 -0.1083950000000 -0.1209420000000 1.0   0.29
O      2 -0.3597180000000  0.1083950000000  0.1209420000000 1.0   0.29
O      2  0.1402820000000 -0.1209420000000  0.1083950000000 1.0   0.29
O      2  0.1402820000000  0.1209420000000 -0.1083950000000 1.0   0.29
S      3  0.0244200000000 -0.1907820000000 -0.3705930000000 1.0   0.03
S      3  0.0244200000000  0.1907820000000  0.3705930000000 1.0   0.03
S      3  0.5244200000000 -0.3705930000000  0.1907820000000 1.0   0.03
S      3  0.5244200000000  0.3705930000000 -0.1907820000000 1.0   0.03
S      3 -0.0117980000000  0.5000000000000  0.5000000000000 1.0  -0.14
S      3 -0.5117980000000  0.5000000000000  0.5000000000000 1.0  -0.14
Fe     4 -0.0262610000000  0.0857330000000  0.1170830000000 1.0   3.24
Fe     4 -0.0262610000000 -0.0857330000000 -0.1170830000000 1.0   3.24
Fe     4  0.4737390000000  0.1170830000000 -0.0857330000000 1.0   3.24
Fe     4  0.4737390000000 -0.1170830000000  0.0857330000000 1.0   3.24
END
