TITL LFSO-Li2Fe2SO2-200913-010649-6b1dc1 0.0301 181.958408 -6.61242017E+003 7.55665 14.0503 14 (R3) n - 1
REM
REM Run started: Sun, 13 Sep 2020 06:52:14 +0100 in /lustre/scratch/uccabz1/launch_tmp/launcher_2020-09-13-00-06-47-129016
REM CASTEP 20.1 from code version af48c487+ pr-geom-scf-spinfix Tue Jun 2 15:39:59 2020 +0100
REM Functional Perdew Burke Ernzerhof Relativity Koelling-Harmon Dispersion off
REM Cut-off 340.0000 eV Grid scale 1.7500 Gmax 16.5316 1/A FBSC none
REM MP grid 3 3 3 Offset 0.000 0.000 0.000 No. kpts 6 Spacing 0.07
REM Total runtime: 20987.5 s
REM Overall efficiency: 97.25 %
REM
REM
REM
REM compiler GCC version 4.9.2
REM options -cpp -iprefix /lustre/shared/ucl/apps/gcc/4.9.2/bin/../lib/gcc/x86_64-unknown-linux-gnu/4.9.2/ -mtune=corei7 -march=x86-64 -g -Og
REM COMMAND_LINE
REM seed 1928314193 -88241096 -1480795260 -968404543 -1813222378 -470592067 -165502033 -84633238 793848257 280556105 -1798669141 -1537608180
REM
REM S 3|1.8|5|6|7|30:31:32(qc=5)
REM O 2|1.5|12|13|15|20:21(qc=5)
REM Li 1|1.3|8|9|10|10U:20(qc=5)
REM Fe 3|2.2|2.0|1.0|8|9|10|40:41:32(qc=5)
REM 
CELL 1.54180    6.90084    6.90084    6.90084   50.80065   50.80065   50.80065
LATT -1
SFAC Li O  S  Fe 
Li     1  0.0913620000000 -0.1568530000000 -0.4169560000000 1.0  -0.01
Li     1 -0.4169560000000  0.0913620000000 -0.1568530000000 1.0  -0.01
Li     1 -0.1568530000000 -0.4169560000000  0.0913620000000 1.0  -0.01
Li     1  0.2549380000000  0.2549380000000  0.2549380000000 1.0   0.02
O      2  0.1764730000000  0.1355410000000 -0.3735860000000 1.0   0.11
O      2 -0.3735860000000  0.1764730000000  0.1355410000000 1.0   0.11
O      2  0.1355410000000 -0.3735860000000  0.1764730000000 1.0   0.11
O      2 -0.2358520000000 -0.2358520000000 -0.2358520000000 1.0   0.17
S      3  0.1309950000000  0.1309950000000  0.1309950000000 1.0   0.26
S      3 -0.4948770000000 -0.4948770000000 -0.4948770000000 1.0  -0.08
Fe     4 -0.1364400000000 -0.0989530000000  0.3355840000000 1.0   3.36
Fe     4  0.3355840000000 -0.1364400000000 -0.0989530000000 1.0   3.36
Fe     4 -0.0989530000000  0.3355840000000 -0.1364400000000 1.0   3.36
Fe     4  0.3796360000000  0.3796360000000  0.3796360000000 1.0  -3.22
END
