TITL LFSO-Li4Fe2SO3-200911-000620-65ed98 0.2613 302.125537 -8.28882854E+003 -15.7430 15.9389 20 (R3) n - 1
REM
REM Run started: Fri, 11 Sep 2020 07:42:22 +0100 in /lustre/scratch/uccabz1/launch_tmp/launcher_2020-09-10-23-06-18-267469
REM CASTEP 20.1 from code version af48c487+ pr-geom-scf-spinfix Tue Jun 2 15:39:59 2020 +0100
REM Functional Perdew Burke Ernzerhof Relativity Koelling-Harmon Dispersion off
REM Cut-off 340.0000 eV Grid scale 1.7500 Gmax 16.5316 1/A FBSC none
REM MP grid 3 3 3 Offset 0.000 0.000 0.000 No. kpts 6 Spacing 0.07
REM Total runtime: 30004.5 s
REM Overall efficiency: 97.9167 %
REM
REM
REM
REM compiler GCC version 4.9.2
REM options -cpp -iprefix /lustre/shared/ucl/apps/gcc/4.9.2/bin/../lib/gcc/x86_64-unknown-linux-gnu/4.9.2/ -mtune=corei7 -march=x86-64 -g -Og
REM COMMAND_LINE
REM seed -428736093 1475462531 -430369390 -1555652228 -1369156617 -620856456 1682242771 -352211837 -1956027166 1647054072 278609495 -819540314
REM
REM S 3|1.8|5|6|7|30:31:32(qc=5)
REM O 2|1.5|12|13|15|20:21(qc=5)
REM Li 1|1.3|8|9|10|10U:20(qc=5)
REM Fe 3|2.2|2.0|1.0|8|9|10|40:41:32(qc=5)
REM 
CELL 1.54180    6.93453    6.93453    6.93453   74.34590   74.34590   74.34590
LATT -1
SFAC Li O  S  Fe 
Li     1  0.0502290000000  0.5413360000000 -0.5140050000000 1.0   0.05
Li     1  0.5413360000000 -0.5140050000000  0.0502290000000 1.0   0.05
Li     1 -0.5140050000000  0.0502290000000  0.5413360000000 1.0   0.05
Li     1  0.3985350000000  0.2400160000000 -0.0680460000000 1.0   0.02
Li     1  0.2400160000000 -0.0680460000000  0.3985350000000 1.0   0.02
Li     1 -0.0680460000000  0.3985350000000  0.2400160000000 1.0   0.02
Li     1 -0.5021340000000 -0.5021340000000 -0.5021340000000 1.0  -0.03
Li     1 -0.3553860000000 -0.3553860000000 -0.3553860000000 1.0   0.05
O      2 -0.2394460000000 -0.4001470000000  0.0622230000000 1.0  -0.32
O      2 -0.4001470000000  0.0622230000000 -0.2394460000000 1.0  -0.32
O      2  0.0622230000000 -0.2394460000000 -0.4001470000000 1.0  -0.32
O      2 -0.4829880000000 -0.1858370000000  0.4280100000000 1.0  -0.23
O      2 -0.1858370000000  0.4280100000000 -0.4829880000000 1.0  -0.23
O      2  0.4280100000000 -0.4829880000000 -0.1858370000000 1.0  -0.23
S      3 -0.0068280000000 -0.0068280000000 -0.0068280000000 1.0  -0.23
S      3  0.3120850000000  0.3120850000000  0.3120850000000 1.0  -0.03
Fe     4 -0.1904620000000  0.2069560000000 -0.2679400000000 1.0  -3.55
Fe     4  0.2069560000000 -0.2679400000000 -0.1904620000000 1.0  -3.55
Fe     4 -0.2679400000000 -0.1904620000000  0.2069560000000 1.0  -3.55
Fe     4 -0.1761540000000 -0.1761540000000 -0.1761540000000 1.0  -3.37
END
