TITL LFSO-Li4Fe3SO4-200930-183621-03cca9 0.0607 168.576533 -5.44522493E+003 8.53541 8.82669 12 (Amm2) n - 1
REM
REM Run started: Wed, 30 Sep 2020 19:37:14 +0100 in /lustre/scratch/uccabz1/launch_tmp/launcher_2020-09-30-17-36-19-598166
REM CASTEP 20.1 from code version af48c487+ pr-geom-scf-spinfix Tue Jun 2 15:39:59 2020 +0100
REM Functional Perdew Burke Ernzerhof Relativity Koelling-Harmon Dispersion off
REM Cut-off 340.0000 eV Grid scale 1.7500 Gmax 16.5316 1/A FBSC none
REM MP grid 3 3 3 Offset 0.000 0.000 0.000 No. kpts 8 Spacing 0.07
REM Total runtime: 4198.04 s
REM Overall efficiency: 94.1429 %
REM
REM
REM
REM compiler GCC version 4.9.2
REM options -cpp -iprefix /lustre/shared/ucl/apps/gcc/4.9.2/bin/../lib/gcc/x86_64-unknown-linux-gnu/4.9.2/ -mtune=corei7 -march=x86-64 -g -Og
REM COMMAND_LINE
REM seed -1256330744 -225757518 -1250755298 1483717825 -1223924133 -825971900 -1298510195 -1302343533 232942151 2083652362 -2123446931 -1149873081
REM
REM S 3|1.8|5|6|7|30:31:32(qc=5)
REM O 2|1.5|12|13|15|20:21(qc=5)
REM Li 1|1.3|8|9|10|10U:20(qc=5)
REM Fe 3|2.2|2.0|1.0|8|9|10|40:41:32(qc=5)
REM 
CELL 1.54180    5.13520    5.13520    6.41340   90.00000   90.00000   94.60896
LATT -1
SFAC Li O  S  Fe 
Li     1  0.2688110000000 -0.1436040000000  0.2876170000000 1.0  -0.07
Li     1 -0.1436040000000  0.2688110000000 -0.2876170000000 1.0  -0.07
Li     1 -0.1436040000000  0.2688110000000  0.2876170000000 1.0  -0.07
Li     1  0.2688110000000 -0.1436040000000 -0.2876170000000 1.0  -0.07
O      2 -0.0330360000000 -0.3796310000000  0.2919830000000 1.0   0.13
O      2 -0.3796310000000 -0.0330360000000 -0.2919830000000 1.0   0.13
O      2 -0.3796310000000 -0.0330360000000  0.2919830000000 1.0   0.13
O      2 -0.0330360000000 -0.3796310000000 -0.2919830000000 1.0   0.13
S      3  0.1189550000000  0.1189550000000  0.0000000000000 1.0   0.16
Fe     4 -0.3486230000000 -0.0499390000000  0.0000000000000 1.0   2.86
Fe     4 -0.0499390000000 -0.3486230000000  0.0000000000000 1.0   2.86
Fe     4 -0.2146220000000 -0.2146220000000 -0.5000000000000 1.0   2.41
END
