TITL LFSO-Li6FeS3O-200910-024156-3352f8 -0.1327 461.680920 -6.82467972E+003 -8.00000 8.30330 22 (Fdd2) n - 1
REM
REM Run started: Thu, 10 Sep 2020 13:07:27 +0100 in /lustre/scratch/uccabz1/launch_tmp/launcher_2020-09-10-11-21-26-323945
REM CASTEP 20.1 from code version af48c487+ pr-geom-scf-spinfix Tue Jun 2 15:39:59 2020 +0100
REM Functional Perdew Burke Ernzerhof Relativity Koelling-Harmon Dispersion off
REM Cut-off 340.0000 eV Grid scale 1.7500 Gmax 16.5316 1/A FBSC none
REM MP grid 3 3 2 Offset 0.000 0.000 0.000 No. kpts 6 Spacing 0.07
REM Total runtime: 36625 s
REM Overall efficiency: 98.2727 %
REM
REM
REM
REM compiler GCC version 4.9.2
REM options -cpp -iprefix /lustre/shared/ucl/apps/gcc/4.9.2/bin/../lib/gcc/x86_64-unknown-linux-gnu/4.9.2/ -mtune=corei7 -march=x86-64 -g -Og
REM COMMAND_LINE
REM seed -1848586131 -1962051963 2104998011 -1846947542 -727759737 1815244432 143791753 -1203304745 1872483946 -1294444340 861292402 -1723425381
REM
REM S 3|1.8|5|6|7|30:31:32(qc=5)
REM O 2|1.5|12|13|15|20:21(qc=5)
REM Li 1|1.3|8|9|10|10U:20(qc=5)
REM Fe 3|2.2|2.0|1.0|8|9|10|40:41:32(qc=5)
REM 
CELL 1.54180    7.41594    7.41594   10.26920  100.92377  100.92377  118.37061
LATT -1
SFAC Li O  S  Fe 
Li     1  0.1991860000000  0.1690310000000 -0.1025820000000 1.0   0.02
Li     1 -0.3017680000000 -0.2716130000000 -0.1025820000000 1.0   0.02
Li     1  0.4190310000000 -0.0508140000000  0.3974180000000 1.0   0.02
Li     1 -0.0216130000000  0.4482320000000  0.3974180000000 1.0   0.02
Li     1  0.0865710000000  0.2805830000000  0.1649330000000 1.0  -0.02
Li     1  0.0783620000000 -0.1156500000000  0.1649330000000 1.0  -0.02
Li     1 -0.4694170000000 -0.1634290000000 -0.3350670000000 1.0  -0.02
Li     1  0.1343500000000 -0.1716380000000 -0.3350670000000 1.0  -0.02
Li     1  0.4036810000000 -0.3727660000000  0.0515030000000 1.0   0.01
Li     1 -0.3521770000000  0.4242690000000  0.0515030000000 1.0   0.01
Li     1 -0.1227660000000  0.1536810000000 -0.4484970000000 1.0   0.01
Li     1 -0.3257310000000  0.3978230000000 -0.4484970000000 1.0   0.01
O      2  0.4566920000000  0.4566920000000 -0.0866160000000 1.0  -0.26
O      2 -0.2933080000000  0.2066920000000  0.4133840000000 1.0  -0.26
S      3  0.4367720000000  0.1091670000000 -0.3694840000000 1.0  -0.14
S      3  0.1937440000000 -0.4786510000000 -0.3694840000000 1.0  -0.14
S      3  0.3591670000000  0.1867720000000  0.1305160000000 1.0  -0.14
S      3 -0.2286510000000 -0.0562560000000  0.1305160000000 1.0  -0.14
S      3 -0.1439730000000 -0.1439730000000 -0.2879460000000 1.0  -0.01
S      3  0.1060270000000 -0.3939730000000  0.2120540000000 1.0  -0.01
Fe     4 -0.3904990000000  0.1095010000000  0.2190030000000 1.0  -3.48
Fe     4  0.3595010000000  0.3595010000000 -0.2809970000000 1.0  -3.48
END
