TITL LFSO-Li4Fe3SO4-200928-142554-666b69 -0.0057 124.504491 -5.44612749E+003 10.1434 10.3811 12 (P-6) n - 1
REM
REM Run started: Mon, 28 Sep 2020 15:34:03 +0100 in /lustre/scratch/uccabz1/launch_tmp/launcher_2020-09-28-13-25-52-886587
REM CASTEP 20.1 from code version af48c487+ pr-geom-scf-spinfix Tue Jun 2 15:39:59 2020 +0100
REM Functional Perdew Burke Ernzerhof Relativity Koelling-Harmon Dispersion off
REM Cut-off 340.0000 eV Grid scale 1.7500 Gmax 16.5316 1/A FBSC none
REM MP grid 4 3 3 Offset 0.000 0.000 0.000 No. kpts 10 Spacing 0.07
REM Total runtime: 3667.65 s
REM Overall efficiency: 75.8571 %
REM
REM
REM
REM compiler GCC version 4.9.2
REM options -cpp -iprefix /lustre/shared/ucl/apps/gcc/4.9.2/bin/../lib/gcc/x86_64-unknown-linux-gnu/4.9.2/ -mtune=corei7 -march=x86-64 -g -Og
REM COMMAND_LINE
REM seed -657391848 -156720686 1874404514 1023347745 -1710022534 -1122469465 561258498 -1025250739 -146236883 -221565924 1444936206 824083918
REM
REM S 3|1.8|5|6|7|30:31:32(qc=5)
REM O 2|1.5|12|13|15|20:21(qc=5)
REM Li 1|1.3|8|9|10|10U:20(qc=5)
REM Fe 3|2.2|2.0|1.0|8|9|10|40:41:32(qc=5)
REM 
CELL 1.54180    3.82072    6.13415    6.13415  120.00000   90.00000   90.00000
LATT -1
SFAC Li O  S  Fe 
Li     1  0.0675000000000 -0.0567210000000  0.2337610000000 1.0  -0.04
Li     1  0.0675000000000 -0.2337610000000  0.7095180000000 1.0  -0.04
Li     1  0.0675000000000 -0.7095180000000  0.0567210000000 1.0  -0.04
Li     1  0.0660520000000  0.3333330000000 -0.3333330000000 1.0  -0.05
O      2  0.0660850000000  0.4363100000000  0.4137060000000 1.0   0.21
O      2  0.0660850000000 -0.4137060000000  0.0226030000000 1.0   0.21
O      2  0.0660850000000 -0.0226030000000 -0.4363100000000 1.0   0.21
O      2 -0.4341380000000  0.3333330000000 -0.3333330000000 1.0   0.23
S      3 -0.4332940000000  0.0000000000000 -0.0000000000000 1.0   0.23
Fe     4  0.5661200000000 -0.3999500000000  0.0355240000000 1.0   3.08
Fe     4  0.5661200000000 -0.0355240000000 -0.4354740000000 1.0   3.08
Fe     4  0.5661200000000  0.4354740000000  0.3999500000000 1.0   3.08
END
