TITL LFSO-Li4Fe3SO4-200928-043954-2945eb -0.0215 152.428414 -5.44385648E+003 12.0567 12.1372 12 (R3) n - 1
REM
REM Run started: Mon, 28 Sep 2020 04:55:51 +0100 in /scratch/scratch/uccabz1/launch_tmp/launcher_2020-09-28-03-39-51-402430
REM CASTEP 19.11| from code version Version unavailable
REM Functional Perdew Burke Ernzerhof Relativity Koelling-Harmon Dispersion off
REM Cut-off 340.0000 eV Grid scale 1.7500 Gmax 16.5316 1/A FBSC none
REM MP grid 3 3 3 Offset 0.000 0.000 0.000 No. kpts 6 Spacing 0.07
REM Total runtime: 991.3 s
REM Overall efficiency: 90.4 %
REM
REM
REM
REM compiler GCC version 4.9.2
REM options -cpp -iprefix /scratch/UCL/applications/gcc/4.9.2/bin/../lib/gcc/x86_64-unknown-linux-gnu/4.9.2/ -mtune=corei7 -march=x86-64 -g -O2
REM COMMAND_LINE
REM seed 1693783129 -744611448 2058497545 78594249 -853609850 636745843 2068996601 -746917632 -1757838960 -1189889149 -29857136 -77026566
REM
REM S 3|1.8|5|6|7|30:31:32(qc=5)
REM O 2|1.5|12|13|15|20:21(qc=5)
REM Li 1|1.3|8|9|10|10U:20(qc=5)
REM Fe 3|2.2|2.0|1.0|8|9|10|40:41:32(qc=5)
REM 
CELL 1.54180    5.35178    5.35178    5.35178   93.42347   93.42347   93.42347
LATT -1
SFAC Li O  S  Fe 
Li     1  0.2482070000000  0.2824020000000 -0.1447920000000 1.0  -0.10
Li     1  0.2824020000000 -0.1447920000000  0.2482070000000 1.0  -0.10
Li     1 -0.1447920000000  0.2482070000000  0.2824020000000 1.0  -0.10
Li     1  0.3789500000000  0.3789500000000  0.3789500000000 1.0   0.04
O      2  0.3963530000000  0.0937500000000 -0.4269400000000 1.0   0.32
O      2  0.0937500000000 -0.4269400000000  0.3963530000000 1.0   0.32
O      2 -0.4269400000000  0.3963530000000  0.0937500000000 1.0   0.32
O      2 -0.4067870000000 -0.4067870000000 -0.4067870000000 1.0   0.30
S      3 -0.0453290000000 -0.0453290000000 -0.0453290000000 1.0   0.09
Fe     4  0.2875250000000 -0.2236720000000 -0.3139370000000 1.0   3.66
Fe     4 -0.2236720000000 -0.3139370000000  0.2875250000000 1.0   3.66
Fe     4 -0.3139370000000  0.2875250000000 -0.2236720000000 1.0   3.66
END
