TITL LFSO-Li2Fe4S3O2-200912-062931-32a161 -0.0816 385.246157 -1.12822959E+004 21.0589 22.0336 22 (P2) n - 1
REM
REM Run started: Mon, 14 Sep 2020 03:56:36 +0100 in /lustre/scratch/uccabz1/launch_tmp/launcher_2020-09-12-05-29-28-870904
REM CASTEP 20.1 from code version af48c487+ pr-geom-scf-spinfix Tue Jun 2 15:39:59 2020 +0100
REM Functional Perdew Burke Ernzerhof Relativity Koelling-Harmon Dispersion off
REM Cut-off 340.0000 eV Grid scale 1.7500 Gmax 16.5316 1/A FBSC none
REM MP grid 4 3 2 Offset 0.000 0.000 0.000 No. kpts 8 Spacing 0.07
REM Total runtime: 141236 s
REM Overall efficiency: 98.75 %
REM
REM
REM
REM compiler GCC version 4.9.2
REM options -cpp -iprefix /lustre/shared/ucl/apps/gcc/4.9.2/bin/../lib/gcc/x86_64-unknown-linux-gnu/4.9.2/ -mtune=corei7 -march=x86-64 -g -Og
REM COMMAND_LINE
REM seed -458728809 405094569 1983987823 -583243995 -2139907551 -538212765 1530665858 -1755424483 1828720770 2023242975 -1819171158 -999629154
REM
REM S 3|1.8|5|6|7|30:31:32(qc=5)
REM O 2|1.5|12|13|15|20:21(qc=5)
REM Li 1|1.3|8|9|10|10U:20(qc=5)
REM Fe 3|2.2|2.0|1.0|8|9|10|40:41:32(qc=5)
REM 
CELL 1.54180    5.57841    6.92795   12.03788   90.00000  124.09793   90.00000
LATT -1
SFAC Li O  S  Fe 
Li     1  0.2351450000000 -0.2346110000000  0.3009770000000 1.0  -0.00
Li     1 -0.2351450000000 -0.2346110000000 -0.3009770000000 1.0  -0.00
Li     1 -0.2650300000000 -0.2676690000000 -0.0902750000000 1.0  -0.02
Li     1  0.2650300000000 -0.2676690000000  0.0902750000000 1.0  -0.02
O      2  0.0844680000000 -0.2335090000000 -0.1063140000000 1.0   0.20
O      2 -0.0844680000000 -0.2335090000000  0.1063140000000 1.0   0.20
O      2  0.4370510000000 -0.4963000000000  0.1795750000000 1.0   0.20
O      2 -0.4370510000000 -0.4963000000000 -0.1795750000000 1.0   0.20
S      3  0.2756780000000  0.4779010000000  0.4142190000000 1.0   0.00
S      3 -0.2756780000000  0.4779010000000 -0.4142190000000 1.0   0.00
S      3  0.2252350000000  0.2120560000000 -0.1507570000000 1.0   0.01
S      3 -0.2252350000000  0.2120560000000  0.1507570000000 1.0   0.01
S      3 -0.4561700000000  0.0459490000000 -0.2836260000000 1.0   0.21
S      3  0.4561700000000  0.0459490000000  0.2836260000000 1.0   0.21
Fe     4  0.2464680000000 -0.4573100000000 -0.1318590000000 1.0   2.97
Fe     4 -0.2464680000000 -0.4573100000000  0.1318590000000 1.0   2.97
Fe     4 -0.2264150000000  0.3446580000000 -0.2337610000000 1.0   2.50
Fe     4  0.2264150000000  0.3446580000000  0.2337610000000 1.0   2.50
Fe     4  0.0200320000000  0.0277420000000  0.1030190000000 1.0   2.07
Fe     4 -0.0200320000000  0.0277420000000 -0.1030190000000 1.0   2.07
Fe     4  0.2773890000000 -0.6765940000000  0.0369660000000 1.0   2.38
Fe     4 -0.2773890000000 -0.6765940000000 -0.0369660000000 1.0   2.38
END
