TITL LFSO-Li6FeS3O-200910-013743-e6af2e 0.0650 188.179710 -3.41125876E+003 3.49552 3.75920 11 (Imm2) n - 1
REM
REM Run started: Thu, 10 Sep 2020 05:19:49 +0100 in /lustre/scratch/uccabz1/launch_tmp/launcher_2020-09-10-00-37-42-092866
REM CASTEP 20.1 from code version af48c487+ pr-geom-scf-spinfix Tue Jun 2 15:39:59 2020 +0100
REM Functional Perdew Burke Ernzerhof Relativity Koelling-Harmon Dispersion off
REM Cut-off 340.0000 eV Grid scale 1.7500 Gmax 16.5316 1/A FBSC none
REM MP grid 3 4 4 Offset 0.000 0.000 0.000 No. kpts 16 Spacing 0.07
REM Total runtime: 14042.4 s
REM Overall efficiency: 97 %
REM
REM
REM
REM compiler GCC version 4.9.2
REM options -cpp -iprefix /lustre/shared/ucl/apps/gcc/4.9.2/bin/../lib/gcc/x86_64-unknown-linux-gnu/4.9.2/ -mtune=corei7 -march=x86-64 -g -Og
REM COMMAND_LINE
REM seed -2052211522 -2012992245 -368896902 -30143565 -1861839287 1786934491 1442344659 -1580988794 -1273295142 1765645966 953064635 -1883178373
REM
REM S 3|1.8|5|6|7|30:31:32(qc=5)
REM O 2|1.5|12|13|15|20:21(qc=5)
REM Li 1|1.3|8|9|10|10U:20(qc=5)
REM Fe 3|2.2|2.0|1.0|8|9|10|40:41:32(qc=5)
REM 
CELL 1.54180   11.24362    6.96965    6.96965   44.88450   36.23372   36.23372
LATT -1
SFAC Li O  S  Fe 
Li     1 -0.1606480000000 -0.1678980000000  0.2560160000000 1.0  -0.02
Li     1  0.0725300000000  0.2560160000000 -0.1678980000000 1.0  -0.02
Li     1 -0.1606480000000  0.2560160000000 -0.1678980000000 1.0  -0.02
Li     1  0.0725300000000 -0.1678980000000  0.2560160000000 1.0  -0.02
Li     1  0.4611290000000 -0.3477430000000 -0.3477430000000 1.0  -0.02
Li     1  0.2343560000000 -0.3477430000000 -0.3477430000000 1.0  -0.02
O      2  0.1217780000000 -0.1217780000000 -0.1217780000000 1.0   0.02
S      3 -0.1276120000000 -0.1735070000000 -0.1735070000000 1.0   0.13
S      3 -0.5253750000000 -0.1735070000000 -0.1735070000000 1.0   0.13
S      3 -0.3414890000000  0.3414890000000  0.3414890000000 1.0   0.10
Fe     4 -0.3568020000000 -0.1431980000000 -0.1431980000000 1.0   3.24
END
