TITL LFSO-Li4Fe3SO4-200930-222451-3d3a75 0.0440 150.293325 -5.44484780E+003 9.85903 10.0669 12 (Imm2) n - 1
REM
REM Run started: Wed, 30 Sep 2020 23:47:59 +0100 in /lustre/scratch/uccabz1/launch_tmp/launcher_2020-09-30-21-24-49-487797
REM CASTEP 20.1 from code version af48c487+ pr-geom-scf-spinfix Tue Jun 2 15:39:59 2020 +0100
REM Functional Perdew Burke Ernzerhof Relativity Koelling-Harmon Dispersion off
REM Cut-off 340.0000 eV Grid scale 1.7500 Gmax 16.5316 1/A FBSC none
REM MP grid 5 3 3 Offset 0.000 0.000 0.000 No. kpts 16 Spacing 0.07
REM Total runtime: 5028.36 s
REM Overall efficiency: 92 %
REM
REM
REM
REM compiler GCC version 4.9.2
REM options -cpp -iprefix /lustre/shared/ucl/apps/gcc/4.9.2/bin/../lib/gcc/x86_64-unknown-linux-gnu/4.9.2/ -mtune=corei7 -march=x86-64 -g -Og
REM COMMAND_LINE
REM seed 844695402 -1772770887 -354033204 -1723598709 1834842594 529634304 -1082380627 706928544 969673577 -1330319288 -1359077972 33744081
REM
REM S 3|1.8|5|6|7|30:31:32(qc=5)
REM O 2|1.5|12|13|15|20:21(qc=5)
REM Li 1|1.3|8|9|10|10U:20(qc=5)
REM Fe 3|2.2|2.0|1.0|8|9|10|40:41:32(qc=5)
REM 
CELL 1.54180    3.40003    7.19097    7.19097   62.82932   76.32527   76.32527
LATT -1
SFAC Li O  S  Fe 
Li     1  0.4143260000000 -0.0003920000000  0.3770100000000 1.0  -0.01
Li     1 -0.2090560000000  0.0003920000000 -0.3770100000000 1.0  -0.01
Li     1  0.4143260000000  0.3770100000000 -0.0003920000000 1.0  -0.01
Li     1 -0.2090560000000 -0.3770100000000  0.0003920000000 1.0  -0.01
O      2 -0.0526770000000  0.4369210000000 -0.1381080000000 1.0   0.28
O      2  0.2461360000000 -0.4369210000000  0.1381080000000 1.0   0.28
O      2 -0.0526770000000 -0.1381080000000  0.4369210000000 1.0   0.28
O      2  0.2461360000000  0.1381080000000 -0.4369210000000 1.0   0.28
S      3 -0.4448890000000  0.0000000000000  0.0000000000000 1.0   0.06
Fe     4  0.1060130000000  0.2532730000000 -0.2532730000000 1.0   2.66
Fe     4  0.1060130000000 -0.2532730000000  0.2532730000000 1.0   2.66
Fe     4 -0.4209970000000  0.5000000000000  0.5000000000000 1.0   3.42
END
