TITL LFSO-Li4Fe2SO4-200910-134215-188de4 -0.0268 359.199387 -9.16664788E+003 12.0001 12.6273 22 (P-1) n - 1
REM
REM Run started: Fri, 11 Sep 2020 17:43:51 +0100 in /lustre/scratch/uccabz1/launch_tmp/launcher_2020-09-10-12-42-13-581233
REM CASTEP 20.1 from code version af48c487+ pr-geom-scf-spinfix Tue Jun 2 15:39:59 2020 +0100
REM Functional Perdew Burke Ernzerhof Relativity Koelling-Harmon Dispersion off
REM Cut-off 340.0000 eV Grid scale 1.7500 Gmax 16.5316 1/A FBSC none
REM MP grid 4 4 2 Offset 0.000 0.000 0.000 No. kpts 16 Spacing 0.07
REM Total runtime: 111046 s
REM Overall efficiency: 98.6667 %
REM
REM
REM
REM compiler GCC version 4.9.2
REM options -cpp -iprefix /lustre/shared/ucl/apps/gcc/4.9.2/bin/../lib/gcc/x86_64-unknown-linux-gnu/4.9.2/ -mtune=corei7 -march=x86-64 -g -Og
REM COMMAND_LINE
REM seed 666080875 -763121489 1200388915 1124622239 41471991 -59351721 -1784524761 1577450955 2146527412 454491868 -250426937 -307500123
REM
REM S 3|1.8|5|6|7|30:31:32(qc=5)
REM O 2|1.5|12|13|15|20:21(qc=5)
REM Li 1|1.3|8|9|10|10U:20(qc=5)
REM Fe 3|2.2|2.0|1.0|8|9|10|40:41:32(qc=5)
REM 
CELL 1.54180    6.26545    5.33427   14.00501   84.88622   82.34752  127.52146
LATT -1
SFAC Li O  S  Fe 
Li     1 -0.1864430000000 -0.0947640000000  0.2176920000000 1.0  -0.02
Li     1  0.1864430000000  0.0947640000000 -0.2176920000000 1.0  -0.02
Li     1 -0.2486820000000 -0.2379310000000 -0.2790700000000 1.0   0.03
Li     1  0.2486820000000  0.2379310000000  0.2790700000000 1.0   0.03
Li     1  0.1585670000000 -0.3650880000000  0.2823270000000 1.0  -0.01
Li     1 -0.1585670000000  0.3650880000000 -0.2823270000000 1.0  -0.01
Li     1 -0.4136990000000 -0.4107340000000 -0.0938550000000 1.0  -0.01
Li     1  0.4136990000000  0.4107340000000  0.0938550000000 1.0  -0.01
O      2  0.1992440000000 -0.0360050000000  0.1882830000000 1.0   0.18
O      2 -0.1992440000000  0.0360050000000 -0.1882830000000 1.0   0.18
O      2 -0.5521270000000 -0.3231600000000  0.1911930000000 1.0   0.18
O      2  0.5521270000000  0.3231600000000 -0.1911930000000 1.0   0.18
O      2 -0.0925590000000  0.1633240000000  0.3158780000000 1.0   0.20
O      2  0.0925590000000 -0.1633240000000 -0.3158780000000 1.0   0.20
O      2  0.5072070000000 -0.2241490000000 -0.0009190000000 1.0   0.18
O      2 -0.5072070000000  0.2241490000000  0.0009190000000 1.0   0.18
S      3  0.2820610000000 -0.0485120000000  0.4267600000000 1.0   0.10
S      3 -0.2820610000000  0.0485120000000 -0.4267600000000 1.0   0.10
Fe     4 -0.4032710000000  0.0947570000000 -0.1030520000000 1.0   2.74
Fe     4  0.4032710000000 -0.0947570000000  0.1030520000000 1.0   2.74
Fe     4  0.3281620000000 -0.0559500000000 -0.4238420000000 1.0   2.43
Fe     4 -0.3281620000000  0.0559500000000  0.4238420000000 1.0   2.43
END
