TITL LFSO-Li4Fe2S3O-200911-020417-3ae979 0.0242 416.544252 -7.74173239E+003 9.44749 11.2783 20 (Pmm2) n - 1
REM
REM Run started: Fri, 11 Sep 2020 21:15:17 +0100 in /lustre/scratch/uccabz1/launch_tmp/launcher_2020-09-11-01-04-14-792630
REM CASTEP 20.1 from code version af48c487+ pr-geom-scf-spinfix Tue Jun 2 15:39:59 2020 +0100
REM Functional Perdew Burke Ernzerhof Relativity Koelling-Harmon Dispersion off
REM Cut-off 340.0000 eV Grid scale 1.7500 Gmax 16.5316 1/A FBSC none
REM MP grid 4 3 1 Offset 0.000 0.000 0.000 No. kpts 4 Spacing 0.07
REM Total runtime: 76361.1 s
REM Overall efficiency: 97.75 %
REM
REM
REM
REM compiler GCC version 4.9.2
REM options -cpp -iprefix /lustre/shared/ucl/apps/gcc/4.9.2/bin/../lib/gcc/x86_64-unknown-linux-gnu/4.9.2/ -mtune=corei7 -march=x86-64 -g -Og
REM COMMAND_LINE
REM seed -230716434 -859899553 -1580255518 265162356 -397274589 1481464872 -955085557 1379877607 709772645 -1658115213 -2014808090 -1118970708
REM
REM S 3|1.8|5|6|7|30:31:32(qc=5)
REM O 2|1.5|12|13|15|20:21(qc=5)
REM Li 1|1.3|8|9|10|10U:20(qc=5)
REM Fe 3|2.2|2.0|1.0|8|9|10|40:41:32(qc=5)
REM 
CELL 1.54180    3.89745    5.35984   19.94020   90.00000   90.00000   90.00000
LATT -1
SFAC Li O  S  Fe 
Li     1 -0.0686740000000  0.2523000000000  0.3621660000000 1.0  -0.11
Li     1 -0.0686740000000 -0.2523000000000 -0.3621660000000 1.0  -0.11
Li     1 -0.0686740000000 -0.2523000000000  0.3621660000000 1.0  -0.11
Li     1 -0.0686740000000  0.2523000000000 -0.3621660000000 1.0  -0.11
Li     1 -0.0315300000000 -0.2310900000000 -0.0890700000000 1.0   0.04
Li     1 -0.0315300000000  0.2310900000000  0.0890700000000 1.0   0.04
Li     1 -0.0315300000000  0.2310900000000 -0.0890700000000 1.0   0.04
Li     1 -0.0315300000000 -0.2310900000000  0.0890700000000 1.0   0.04
O      2 -0.0238870000000 -0.1383830000000  0.0000000000000 1.0  -0.10
O      2 -0.0238870000000  0.1383830000000  0.0000000000000 1.0  -0.10
S      3 -0.5320980000000 -0.2124590000000  0.1600060000000 1.0  -0.04
S      3 -0.5320980000000  0.2124590000000 -0.1600060000000 1.0  -0.04
S      3 -0.5320980000000  0.2124590000000  0.1600060000000 1.0  -0.04
S      3 -0.5320980000000 -0.2124590000000 -0.1600060000000 1.0  -0.04
S      3  0.4302220000000  0.5000000000000 -0.3558120000000 1.0   0.02
S      3  0.4302220000000 -0.5000000000000  0.3558120000000 1.0   0.02
Fe     4  0.4387910000000 -0.2126150000000  0.2686490000000 1.0   2.51
Fe     4  0.4387910000000  0.2126150000000 -0.2686490000000 1.0   2.51
Fe     4  0.4387910000000  0.2126150000000  0.2686490000000 1.0   2.51
Fe     4  0.4387910000000 -0.2126150000000 -0.2686490000000 1.0   2.51
END
