TITL LFSO-LiFe3S2O3-200909-165914-471209 0.0604 144.539698 -4.70906374E+003 5.58191 6.17033 9 (P3) n - 1
REM
REM Run started: Wed, 09 Sep 2020 20:06:46 +0100 in /lustre/scratch/uccabz1/launch_tmp/launcher_2020-09-09-15-59-12-278112
REM CASTEP 20.1 from code version af48c487+ pr-geom-scf-spinfix Tue Jun 2 15:39:59 2020 +0100
REM Functional Perdew Burke Ernzerhof Relativity Koelling-Harmon Dispersion off
REM Cut-off 340.0000 eV Grid scale 1.7500 Gmax 16.5316 1/A FBSC none
REM MP grid 3 4 4 Offset 0.000 0.000 0.000 No. kpts 24 Spacing 0.07
REM Total runtime: 11340.8 s
REM Overall efficiency: 92.4 %
REM
REM
REM
REM compiler GCC version 4.9.2
REM options -cpp -iprefix /lustre/shared/ucl/apps/gcc/4.9.2/bin/../lib/gcc/x86_64-unknown-linux-gnu/4.9.2/ -mtune=corei7 -march=x86-64 -g -Og
REM COMMAND_LINE
REM seed 670420246 -71495400 -1178600530 1756188949 883338148 -74644120 1912860149 825585130 -868399954 -1443462360 423644432 -154067148
REM
REM S 3|1.8|5|6|7|30:31:32(qc=5)
REM O 2|1.5|12|13|15|20:21(qc=5)
REM Li 1|1.3|8|9|10|10U:20(qc=5)
REM Fe 3|2.2|2.0|1.0|8|9|10|40:41:32(qc=5)
REM 
CELL 1.54180    6.02775    5.26200    5.26200  120.00000   90.00000   90.00000
LATT -1
SFAC Li O  S  Fe 
Li     1  0.2053710000000  0.3333330000000 -0.3333330000000 1.0   0.05
O      2  0.3414100000000  0.3555110000000  0.3470660000000 1.0   0.38
O      2  0.3414100000000 -0.0084450000000 -0.3555110000000 1.0   0.38
O      2  0.3414100000000 -0.3470660000000  0.0084450000000 1.0   0.38
S      3 -0.1767460000000 -0.0000000000000  0.0000000000000 1.0  -0.13
S      3 -0.2489630000000  0.3333330000000 -0.3333330000000 1.0  -0.14
Fe     4 -0.3937170000000 -0.3012830000000  0.0732380000000 1.0   1.56
Fe     4 -0.3937170000000  0.3745210000000  0.3012830000000 1.0   1.56
Fe     4 -0.3937170000000 -0.0732380000000 -0.3745210000000 1.0   1.56
END
