TITL LFSO-Li2Fe3S2O2-200921-015124-1790ec 0.0136 305.305118 -8.94586170E+003 -23.5075 23.6530 18 (P2/c) n - 1
REM
REM Run started: Mon, 21 Sep 2020 16:42:02 +0100 in /lustre/scratch/uccabz1/launch_tmp/launcher_2020-09-21-15-28-41-113656
REM CASTEP 20.1 from code version af48c487+ pr-geom-scf-spinfix Tue Jun 2 15:39:59 2020 +0100
REM Functional Perdew Burke Ernzerhof Relativity Koelling-Harmon Dispersion off
REM Cut-off 340.0000 eV Grid scale 1.7500 Gmax 16.5316 1/A FBSC none
REM MP grid 3 3 3 Offset 0.000 0.000 0.000 No. kpts 10 Spacing 0.07
REM Total runtime: 48903 s
REM Overall efficiency: 75.2 %
REM
REM
REM
REM compiler GCC version 4.9.2
REM options -cpp -iprefix /lustre/shared/ucl/apps/gcc/4.9.2/bin/../lib/gcc/x86_64-unknown-linux-gnu/4.9.2/ -mtune=corei7 -march=x86-64 -g -Og
REM COMMAND_LINE
REM seed 729308877 1035429800 431490667 -647204151 -1641780797 245716268 -1550919881 1865421330 2000428037 -1651269044 999259376 -362619072
REM
REM S 3|1.8|5|6|7|30:31:32(qc=5)
REM O 2|1.5|12|13|15|20:21(qc=5)
REM Li 1|1.3|8|9|10|10U:20(qc=5)
REM Fe 3|2.2|2.0|1.0|8|9|10|40:41:32(qc=5)
REM 
CELL 1.54180    7.78704    7.24455    6.56376   90.00000   90.00000  124.46085
LATT -1
SFAC Li O  S  Fe 
Li     1 -0.3319880000000  0.2995340000000  0.2906300000000 1.0   0.04
Li     1 -0.1680120000000 -0.2995340000000  0.2906300000000 1.0   0.04
Li     1  0.3319880000000 -0.2995340000000 -0.2906300000000 1.0   0.04
Li     1  0.1680120000000  0.2995340000000 -0.2906300000000 1.0   0.04
O      2  0.0597210000000  0.4533770000000 -0.1766450000000 1.0  -0.41
O      2  0.4402790000000 -0.4533770000000 -0.1766450000000 1.0  -0.41
O      2 -0.0597210000000 -0.4533770000000  0.1766450000000 1.0  -0.41
O      2 -0.4402790000000  0.4533770000000  0.1766450000000 1.0  -0.41
S      3 -0.4335120000000  0.1508950000000 -0.3231390000000 1.0  -0.23
S      3 -0.0664880000000 -0.1508950000000 -0.3231390000000 1.0  -0.23
S      3  0.4335120000000 -0.1508950000000  0.3231390000000 1.0  -0.23
S      3  0.0664880000000  0.1508950000000  0.3231390000000 1.0  -0.23
Fe     4 -0.5582060000000 -0.3863300000000  0.1067130000000 1.0  -3.53
Fe     4  0.0582060000000  0.3863300000000  0.1067130000000 1.0  -3.53
Fe     4  0.5582060000000  0.3863300000000 -0.1067130000000 1.0  -3.53
Fe     4 -0.0582060000000 -0.3863300000000 -0.1067130000000 1.0  -3.53
Fe     4 -0.2500000000000  0.0000000000000 -0.4995190000000 1.0  -3.49
Fe     4  0.2500000000000  0.0000000000000  0.4995190000000 1.0  -3.49
END
