TITL LFSO-Li2Fe3SO3-200912-153130-852458 -0.5397 243.518410 -9.21622075E+003 19.8397 20.2448 18 (P-1) n - 1
REM
REM Run started: Mon, 14 Sep 2020 12:18:07 +0100 in /lustre/scratch/uccabz1/launch_tmp/launcher_2020-09-14-10-37-23-968239
REM CASTEP 20.1 from code version af48c487+ pr-geom-scf-spinfix Tue Jun 2 15:39:59 2020 +0100
REM Functional Perdew Burke Ernzerhof Relativity Koelling-Harmon Dispersion off
REM Cut-off 340.0000 eV Grid scale 1.7500 Gmax 16.5316 1/A FBSC none
REM MP grid 5 3 2 Offset 0.000 0.000 0.000 No. kpts 15 Spacing 0.07
REM Total runtime: 125228 s
REM Overall efficiency: 98.3636 %
REM
REM
REM
REM compiler GCC version 4.9.2
REM options -cpp -iprefix /lustre/shared/ucl/apps/gcc/4.9.2/bin/../lib/gcc/x86_64-unknown-linux-gnu/4.9.2/ -mtune=corei7 -march=x86-64 -g -Og
REM COMMAND_LINE
REM seed 830519917 -1657714644 940494776 715978530 1520931223 -1744453360 537255942 -562161964 1887748528 914043982 1027450899 2776669
REM
REM S 3|1.8|5|6|7|30:31:32(qc=5)
REM O 2|1.5|12|13|15|20:21(qc=5)
REM Li 1|1.3|8|9|10|10U:20(qc=5)
REM Fe 3|2.2|2.0|1.0|8|9|10|40:41:32(qc=5)
REM 
CELL 1.54180    3.42982    8.91627   12.02624  130.60605  108.59244   94.25603
LATT -1
SFAC Li O  S  Fe 
Li     1 -0.2297070000000 -0.1299880000000  0.3038910000000 1.0  -0.02
Li     1  0.2297070000000  0.1299880000000 -0.3038910000000 1.0  -0.02
Li     1 -0.3946760000000  0.0070000000000  0.1615480000000 1.0  -0.02
Li     1  0.3946760000000 -0.0070000000000 -0.1615480000000 1.0  -0.02
O      2  0.5795250000000  0.2991340000000 -0.0689740000000 1.0   0.32
O      2 -0.5795250000000 -0.2991340000000  0.0689740000000 1.0   0.32
O      2 -0.1019590000000  0.1530920000000  0.3986650000000 1.0   0.20
O      2  0.1019590000000 -0.1530920000000 -0.3986650000000 1.0   0.20
O      2 -0.2045480000000 -0.1559950000000 -0.2224960000000 1.0   0.17
O      2  0.2045480000000  0.1559950000000  0.2224960000000 1.0   0.17
S      3 -0.2465560000000  0.3200380000000 -0.3143510000000 1.0   0.14
S      3  0.2465560000000 -0.3200380000000  0.3143510000000 1.0   0.14
Fe     4 -0.5392350000000  0.2486810000000  0.4393590000000 1.0   2.51
Fe     4  0.5392350000000 -0.2486810000000 -0.4393590000000 1.0   2.51
Fe     4 -0.7273150000000  0.3963190000000  0.2681050000000 1.0   3.14
Fe     4  0.7273150000000 -0.3963190000000 -0.2681050000000 1.0   3.14
Fe     4  0.2527890000000  0.4322720000000  0.0544400000000 1.0   3.50
Fe     4 -0.2527890000000 -0.4322720000000 -0.0544400000000 1.0   3.50
END
