TITL LFSO-Li3FeSO2-200911-170756-b84316 -0.0867 336.442969 -7.92924824E+003 6.95534 7.49364 21 (C2) n - 1
REM
REM Run started: Sun, 13 Sep 2020 09:39:21 +0100 in /lustre/scratch/uccabz1/launch_tmp/launcher_2020-09-11-16-07-54-506544
REM CASTEP 20.1 from code version af48c487+ pr-geom-scf-spinfix Tue Jun 2 15:39:59 2020 +0100
REM Functional Perdew Burke Ernzerhof Relativity Koelling-Harmon Dispersion off
REM Cut-off 340.0000 eV Grid scale 1.7500 Gmax 16.5316 1/A FBSC none
REM MP grid 4 3 2 Offset 0.000 0.000 0.000 No. kpts 12 Spacing 0.07
REM Total runtime: 160387 s
REM Overall efficiency: 98.6667 %
REM
REM
REM
REM compiler GCC version 4.9.2
REM options -cpp -iprefix /lustre/shared/ucl/apps/gcc/4.9.2/bin/../lib/gcc/x86_64-unknown-linux-gnu/4.9.2/ -mtune=corei7 -march=x86-64 -g -Og
REM COMMAND_LINE
REM seed -764942612 -820440960 -287599139 1311421140 1524245354 1401807991 -2110626323 -1766171062 -1910451199 555951866 -845111030 930968722
REM
REM S 3|1.8|5|6|7|30:31:32(qc=5)
REM O 2|1.5|12|13|15|20:21(qc=5)
REM Li 1|1.3|8|9|10|10U:20(qc=5)
REM Fe 3|2.2|2.0|1.0|8|9|10|40:41:32(qc=5)
REM 
CELL 1.54180    5.08362    5.79711   13.00954   84.56566   77.52616   63.99425
LATT -1
SFAC Li O  S  Fe 
Li     1 -0.3854790000000 -0.0413140000000  0.3087680000000 1.0  -0.00
Li     1 -0.5732070000000 -0.0413140000000 -0.3087680000000 1.0  -0.00
Li     1  0.2286170000000 -0.2199820000000  0.3590290000000 1.0   0.01
Li     1 -0.0086350000000 -0.2199820000000 -0.3590290000000 1.0   0.01
Li     1 -0.0867990000000  0.3686160000000  0.3132210000000 1.0   0.03
Li     1 -0.2818160000000  0.3686160000000 -0.3132210000000 1.0   0.03
Li     1  0.2369670000000 -0.6247650000000  0.4217460000000 1.0   0.01
Li     1  0.3877990000000 -0.6247650000000 -0.4217460000000 1.0   0.01
Li     1 -0.0675200000000  0.1350400000000 -0.5000000000000 1.0  -0.03
O      2  0.4007790000000 -0.3030810000000 -0.3793550000000 1.0   0.17
O      2 -0.0976980000000 -0.3030810000000  0.3793550000000 1.0   0.17
O      2 -0.0180550000000  0.4755870000000 -0.4276270000000 1.0   0.24
O      2 -0.4575320000000  0.4755870000000  0.4276270000000 1.0   0.24
O      2  0.2199920000000  0.0931800000000  0.3724430000000 1.0   0.03
O      2 -0.3131720000000  0.0931800000000 -0.3724430000000 1.0   0.03
S      3  0.0400840000000  0.0651890000000 -0.1344890000000 1.0   0.12
S      3 -0.1052730000000  0.0651890000000  0.1344890000000 1.0   0.12
S      3 -0.3612220000000 -0.2775560000000  0.0000000000000 1.0   0.08
Fe     4  0.2313690000000  0.0401230000000  0.0006230000000 1.0   1.37
Fe     4 -0.2714920000000  0.0401230000000 -0.0006230000000 1.0   1.37
Fe     4 -0.3237520000000 -0.3524950000000 -0.5000000000000 1.0   2.98
END
