TITL LFSO-Li3Fe3S5O-200928-154441-d1f214 0.1445 483.772324 -10294.08840045 1.59236 14.9252 24 (Cm) n - 1
REM
REM Run started: Thu, 01 Oct 2020 00:22:17 +0100 in /lustre/scratch/uccabz1/launch_tmp/launcher_2020-09-30-21-27-24-107338
REM CASTEP 20.1 from code version af48c487+ pr-geom-scf-spinfix Tue Jun 2 15:39:59 2020 +0100
REM Functional Perdew Burke Ernzerhof Relativity Koelling-Harmon Dispersion off
REM Cut-off 340.0000 eV Grid scale 1.7500 Gmax 16.5316 1/A FBSC none
REM MP grid 3 3 3 Offset 0.000 0.000 0.000 No. kpts 10 Spacing 0.07
REM Total runtime: 85952 s
REM Overall efficiency: 68.4444 %
REM
REM
REM
REM compiler GCC version 4.9.2
REM options -cpp -iprefix /lustre/shared/ucl/apps/gcc/4.9.2/bin/../lib/gcc/x86_64-unknown-linux-gnu/4.9.2/ -mtune=corei7 -march=x86-64 -g -Og
REM COMMAND_LINE
REM seed 1890002257 -1475408154 -531543612 1937730261 -1896653040 292027904 1284367781 2034464023 -977792943 1841337195 1985020865 2146198256
REM
REM S 3|1.8|5|6|7|30:31:32(qc=5)
REM O 2|1.5|12|13|15|20:21(qc=5)
REM Li 1|1.3|8|9|10|10U:20(qc=5)
REM Fe 3|2.2|2.0|1.0|8|9|10|40:41:32(qc=5)
REM 
CELL 1.54180    9.17466    9.17466    9.91934  115.33502  115.33502  113.12561
LATT -1
SFAC Li O  S  Fe 
Li     1  0.0842300000000  0.5220540000000 -0.4077310000000 1.0  -0.04
Li     1  0.5220540000000  0.0842300000000 -0.4077310000000 1.0  -0.04
Li     1  0.2385900000000  0.4901450000000  0.0249510000000 1.0  -0.00
Li     1  0.4901450000000  0.2385900000000  0.0249510000000 1.0  -0.00
Li     1 -0.3131020000000 -0.5432350000000 -0.5018660000000 1.0   0.01
Li     1 -0.5432350000000 -0.3131020000000 -0.5018660000000 1.0   0.01
O      2 -0.3053840000000  0.4650760000000  0.3189290000000 1.0   0.34
O      2  0.4650760000000 -0.3053840000000  0.3189290000000 1.0   0.34
S      3  0.1172060000000 -0.1559750000000 -0.1796400000000 1.0   0.01
S      3 -0.1559750000000  0.1172060000000 -0.1796400000000 1.0   0.01
S      3 -0.2671570000000  0.5040630000000 -0.1822930000000 1.0  -0.15
S      3  0.5040630000000 -0.2671570000000 -0.1822930000000 1.0  -0.15
S      3  0.1025900000000  0.3518490000000  0.3274440000000 1.0  -0.11
S      3  0.3518490000000  0.1025900000000  0.3274440000000 1.0  -0.11
S      3 -0.3894580000000 -0.1657360000000  0.0975000000000 1.0  -0.03
S      3 -0.1657360000000 -0.3894580000000  0.0975000000000 1.0  -0.03
S      3  0.2388970000000  0.0066820000000  0.5999030000000 1.0   0.13
S      3  0.0066820000000  0.2388970000000  0.5999030000000 1.0   0.13
Fe     4 -0.0617450000000 -0.2420900000000 -0.4822350000000 1.0   3.25
Fe     4 -0.2420900000000 -0.0617450000000 -0.4822350000000 1.0   3.25
Fe     4 -0.1502950000000  0.0282460000000 -0.0048350000000 1.0  -2.93
Fe     4  0.0282460000000 -0.1502950000000 -0.0048350000000 1.0  -2.93
Fe     4 -0.0337580000000  0.0961710000000  0.3251390000000 1.0   0.36
Fe     4  0.0961710000000 -0.0337580000000  0.3251390000000 1.0   0.36
END
