TITL LFSO-Li3Fe3S5O-200929-023757-7f939b 0.0130 257.607512 -5.14628879E+003 3.65019 4.55198 12 (Cm) n - 1
REM
REM Run started: Tue, 29 Sep 2020 17:08:17 +0100 in /lustre/scratch/uccabz1/launch_tmp/launcher_2020-09-29-01-37-55-740188
REM CASTEP 20.1 from code version af48c487+ pr-geom-scf-spinfix Tue Jun 2 15:39:59 2020 +0100
REM Functional Perdew Burke Ernzerhof Relativity Koelling-Harmon Dispersion off
REM Cut-off 340.0000 eV Grid scale 1.7500 Gmax 16.5316 1/A FBSC none
REM MP grid 3 4 2 Offset 0.000 0.000 0.000 No. kpts 12 Spacing 0.07
REM Total runtime: 28625.3 s
REM Overall efficiency: 89.7778 %
REM
REM
REM
REM compiler GCC version 4.9.2
REM options -cpp -iprefix /lustre/shared/ucl/apps/gcc/4.9.2/bin/../lib/gcc/x86_64-unknown-linux-gnu/4.9.2/ -mtune=corei7 -march=x86-64 -g -Og
REM COMMAND_LINE
REM seed 1255757868 -1186997153 -804984046 519906597 1008030520 -743049001 2035120415 -666888784 865527768 -790201165 919502373 2022807812
REM
REM S 3|1.8|5|6|7|30:31:32(qc=5)
REM O 2|1.5|12|13|15|20:21(qc=5)
REM Li 1|1.3|8|9|10|10U:20(qc=5)
REM Fe 3|2.2|2.0|1.0|8|9|10|40:41:32(qc=5)
REM 
CELL 1.54180    6.13001    6.13001    9.02331  126.57972   82.45842  108.41966
LATT -1
SFAC Li O  S  Fe 
Li     1  0.2127680000000  0.2524650000000 -0.1259440000000 1.0   0.02
Li     1 -0.3784090000000 -0.3387120000000 -0.1259440000000 1.0   0.02
Li     1 -0.4252620000000  0.0313160000000 -0.3939460000000 1.0   0.01
O      2  0.4794510000000  0.3099650000000 -0.2105840000000 1.0  -0.16
S      3 -0.4325320000000  0.5209960000000  0.4981240000000 1.0   0.07
S      3 -0.0228720000000 -0.0693440000000  0.4981240000000 1.0   0.07
S      3  0.4920570000000  0.1105460000000  0.0322180000000 1.0   0.03
S      3 -0.0783280000000  0.5401610000000  0.0322180000000 1.0   0.03
S      3 -0.5070140000000 -0.2428030000000  0.2501830000000 1.0  -0.05
Fe     4  0.4577590000000  0.1030050000000  0.2633670000000 1.0   1.25
Fe     4  0.1603620000000 -0.1943920000000  0.2633670000000 1.0   1.25
Fe     4 -0.2935680000000 -0.4428300000000 -0.7363980000000 1.0   1.10
END
