TITL LFSO-Li4FeSO2-200910-082649-3b5f6d 0.0530 111.238741 -2.83760605E+003 4.00180 4.07570 8 (R3m) n - 1
REM
REM Run started: Thu, 10 Sep 2020 09:41:35 +0100 in /lustre/scratch/uccabz1/launch_tmp/launcher_2020-09-10-07-26-48-267761
REM CASTEP 20.1 from code version af48c487+ pr-geom-scf-spinfix Tue Jun 2 15:39:59 2020 +0100
REM Functional Perdew Burke Ernzerhof Relativity Koelling-Harmon Dispersion off
REM Cut-off 340.0000 eV Grid scale 1.7500 Gmax 16.5316 1/A FBSC none
REM MP grid 4 4 4 Offset 0.000 0.000 0.000 No. kpts 10 Spacing 0.07
REM Total runtime: 4927.96 s
REM Overall efficiency: 87.5 %
REM
REM
REM
REM compiler GCC version 4.9.2
REM options -cpp -iprefix /lustre/shared/ucl/apps/gcc/4.9.2/bin/../lib/gcc/x86_64-unknown-linux-gnu/4.9.2/ -mtune=corei7 -march=x86-64 -g -Og
REM COMMAND_LINE
REM seed -1367243100 -965965283 1699600471 59109683 1841043489 -132606979 1272393969 9924576 1750857586 -1020022994 2122431963 -1207264431
REM
REM S 3|1.8|5|6|7|30:31:32(qc=5)
REM O 2|1.5|12|13|15|20:21(qc=5)
REM Li 1|1.3|8|9|10|10U:20(qc=5)
REM Fe 3|2.2|2.0|1.0|8|9|10|40:41:32(qc=5)
REM 
CELL 1.54180    6.33795    6.33795    6.33795   43.91883   43.91883   43.91883
LATT -1
SFAC Li O  S  Fe 
Li     1 -0.1168160000000  0.3225760000000 -0.1168160000000 1.0  -0.01
Li     1  0.3225760000000 -0.1168160000000 -0.1168160000000 1.0  -0.01
Li     1 -0.1168160000000 -0.1168160000000  0.3225760000000 1.0  -0.01
Li     1 -0.1640150000000 -0.1640150000000 -0.1640150000000 1.0  -0.09
O      2 -0.0574270000000 -0.0574270000000 -0.0574270000000 1.0   0.08
O      2  0.1262180000000  0.1262180000000  0.1262180000000 1.0   0.31
S      3  0.3841510000000  0.3841510000000  0.3841510000000 1.0   0.14
Fe     4 -0.4854150000000 -0.4854150000000 -0.4854150000000 1.0   3.60
END
