TITL LFSO-Li3Fe3S4O2-200929-130334-5c52c0 -0.0283 481.032760 -1.05637749E+004 -17.9996 18.7083 24 (C2) n - 1
REM
REM Run started: Wed, 30 Sep 2020 16:17:47 +0100 in /lustre/scratch/uccabz1/launch_tmp/launcher_2020-09-30-14-26-37-682487
REM CASTEP 20.1 from code version af48c487+ pr-geom-scf-spinfix Tue Jun 2 15:39:59 2020 +0100
REM Functional Perdew Burke Ernzerhof Relativity Koelling-Harmon Dispersion off
REM Cut-off 340.0000 eV Grid scale 1.7500 Gmax 16.5316 1/A FBSC none
REM MP grid 3 2 2 Offset 0.000 0.000 0.000 No. kpts 5 Spacing 0.07
REM Total runtime: 90868.5 s
REM Overall efficiency: 69.6667 %
REM
REM
REM
REM compiler GCC version 4.9.2
REM options -cpp -iprefix /lustre/shared/ucl/apps/gcc/4.9.2/bin/../lib/gcc/x86_64-unknown-linux-gnu/4.9.2/ -mtune=corei7 -march=x86-64 -g -Og
REM COMMAND_LINE
REM seed 696124876 162708593 -515776702 -829744689 158495009 -265743435 1610380757 -234979833 1154712311 1482597013 820738904 263565189
REM
REM S 3|1.8|5|6|7|30:31:32(qc=5)
REM O 2|1.5|12|13|15|20:21(qc=5)
REM Li 1|1.3|8|9|10|10U:20(qc=5)
REM Fe 3|2.2|2.0|1.0|8|9|10|40:41:32(qc=5)
REM 
CELL 1.54180    5.95796   12.12012   12.12012   37.95162   64.89447   64.89447
LATT -1
SFAC Li O  S  Fe 
Li     1 -0.4324410000000  0.3344930000000  0.2336730000000 1.0  -0.00
Li     1  0.4324410000000 -0.2336730000000 -0.3344930000000 1.0  -0.00
Li     1  0.3504620000000 -0.3401480000000  0.2448860000000 1.0  -0.04
Li     1 -0.3504620000000 -0.2448860000000  0.3401480000000 1.0  -0.04
Li     1 -0.1283220000000  0.0325130000000  0.3042320000000 1.0  -0.00
Li     1  0.1283220000000 -0.3042320000000 -0.0325130000000 1.0  -0.00
O      2  0.1123130000000 -0.1523030000000 -0.2734520000000 1.0  -0.24
O      2 -0.1123130000000  0.2734520000000  0.1523030000000 1.0  -0.24
O      2 -0.2569710000000 -0.1213550000000  0.5570960000000 1.0  -0.30
O      2  0.2569710000000 -0.5570960000000  0.1213550000000 1.0  -0.30
S      3 -0.1932780000000 -0.3591930000000  0.2125370000000 1.0  -0.17
S      3  0.1932780000000 -0.2125370000000  0.3591930000000 1.0  -0.17
S      3  0.2722370000000  0.3098030000000  0.4700070000000 1.0  -0.05
S      3 -0.2722370000000 -0.4700070000000 -0.3098030000000 1.0  -0.05
S      3  0.2183560000000  0.4644930000000 -0.1913050000000 1.0  -0.11
S      3 -0.2183560000000  0.1913050000000 -0.4644930000000 1.0  -0.11
S      3 -0.5902960000000 -0.1216960000000 -0.1539100000000 1.0  -0.18
S      3  0.5902960000000  0.1539100000000  0.1216960000000 1.0  -0.18
Fe     4 -0.2076580000000 -0.0961330000000 -0.3229090000000 1.0  -3.45
Fe     4  0.2076580000000  0.3229090000000  0.0961330000000 1.0  -3.45
Fe     4 -0.1563270000000  0.3703990000000 -0.0598170000000 1.0  -2.40
Fe     4  0.1563270000000  0.0598170000000 -0.3703990000000 1.0  -2.40
Fe     4  0.0334710000000  0.3844710000000  0.3209870000000 1.0  -2.06
Fe     4 -0.0334710000000 -0.3209870000000 -0.3844710000000 1.0  -2.06
END
