TITL LFSO-Li4Fe2SO3-200910-225754-210b68 -0.6155 318.046778 -8.28831270E+003 12.0515 12.4947 20 (C2) n - 1
REM
REM Run started: Sat, 12 Sep 2020 07:26:27 +0100 in /lustre/scratch/uccabz1/launch_tmp/launcher_2020-09-12-05-41-15-309701
REM CASTEP 20.1 from code version af48c487+ pr-geom-scf-spinfix Tue Jun 2 15:39:59 2020 +0100
REM Functional Perdew Burke Ernzerhof Relativity Koelling-Harmon Dispersion off
REM Cut-off 340.0000 eV Grid scale 1.7500 Gmax 16.5316 1/A FBSC none
REM MP grid 4 2 2 Offset 0.000 0.000 0.000 No. kpts 8 Spacing 0.07
REM Total runtime: 92076.3 s
REM Overall efficiency: 98.5833 %
REM
REM
REM
REM compiler GCC version 4.9.2
REM options -cpp -iprefix /lustre/shared/ucl/apps/gcc/4.9.2/bin/../lib/gcc/x86_64-unknown-linux-gnu/4.9.2/ -mtune=corei7 -march=x86-64 -g -Og
REM COMMAND_LINE
REM seed -190524467 815471354 -2042851237 -187409633 -1130726032 1011707036 1697367664 1982166806 -926772503 1449628979 -1118501305 -1105241100
REM
REM S 3|1.8|5|6|7|30:31:32(qc=5)
REM O 2|1.5|12|13|15|20:21(qc=5)
REM Li 1|1.3|8|9|10|10U:20(qc=5)
REM Fe 3|2.2|2.0|1.0|8|9|10|40:41:32(qc=5)
REM 
CELL 1.54180    4.54421    9.00349    9.96065   54.17456   76.81427   75.38289
LATT -1
SFAC Li O  S  Fe 
Li     1  0.4474150000000  0.1147360000000  0.0357530000000 1.0  -0.01
Li     1  0.5979050000000 -0.1147360000000 -0.0357530000000 1.0  -0.01
Li     1 -0.3993110000000  0.4264180000000  0.1318930000000 1.0  -0.01
Li     1  0.1590000000000 -0.4264180000000 -0.1318930000000 1.0  -0.01
Li     1  0.4928570000000 -0.2350540000000 -0.5685380000000 1.0  -0.02
Li     1 -0.3107350000000  0.2350540000000  0.5685380000000 1.0  -0.02
Li     1  0.1194160000000  0.1238610000000 -0.1975870000000 1.0  -0.00
Li     1  0.0456900000000 -0.1238610000000  0.1975870000000 1.0  -0.00
O      2 -0.4322410000000  0.3807970000000  0.3439580000000 1.0   0.13
O      2  0.2925150000000 -0.3807970000000 -0.3439580000000 1.0   0.13
O      2 -0.0014550000000  0.3180500000000 -0.4050600000000 1.0   0.16
O      2 -0.0884650000000 -0.3180500000000  0.4050600000000 1.0   0.16
O      2 -0.5285370000000 -0.1357100000000  0.1897040000000 1.0   0.16
O      2 -0.4745430000000  0.1357100000000 -0.1897040000000 1.0   0.16
S      3 -0.1647810000000 -0.6886990000000 -0.0474070000000 1.0   0.12
S      3  0.0991140000000  0.6886990000000  0.0474070000000 1.0   0.12
Fe     4 -0.4729830000000 -0.6231470000000 -0.2597800000000 1.0   2.94
Fe     4 -0.3559100000000  0.6231470000000  0.2597800000000 1.0   2.94
Fe     4  0.1811580000000  0.4940870000000  0.3786300000000 1.0   2.56
Fe     4  0.0538750000000 -0.4940870000000 -0.3786300000000 1.0   2.56
END
