TITL LFSO-Li3Fe3S4O2-200929-195340-2f5788 -0.0095 244.033934 -5.27902735E+003 8.63826 9.21535 12 (Pmm2) n - 1
REM
REM Run started: Tue, 29 Sep 2020 23:55:01 +0100 in /lustre/scratch/uccabz1/launch_tmp/launcher_2020-09-29-18-53-39-208986
REM CASTEP 20.1 from code version af48c487+ pr-geom-scf-spinfix Tue Jun 2 15:39:59 2020 +0100
REM Functional Perdew Burke Ernzerhof Relativity Koelling-Harmon Dispersion off
REM Cut-off 340.0000 eV Grid scale 1.7500 Gmax 16.5316 1/A FBSC none
REM MP grid 3 3 2 Offset 0.000 0.000 0.000 No. kpts 4 Spacing 0.07
REM Total runtime: 15487.6 s
REM Overall efficiency: 97.0909 %
REM
REM
REM
REM compiler GCC version 4.9.2
REM options -cpp -iprefix /lustre/shared/ucl/apps/gcc/4.9.2/bin/../lib/gcc/x86_64-unknown-linux-gnu/4.9.2/ -mtune=corei7 -march=x86-64 -g -Og
REM COMMAND_LINE
REM seed -717161285 1731530477 -132192564 855602342 2106409267 1110112740 730095918 -1257633462 1431362048 -351605062 -154640856 -1464444851
REM
REM S 3|1.8|5|6|7|30:31:32(qc=5)
REM O 2|1.5|12|13|15|20:21(qc=5)
REM Li 1|1.3|8|9|10|10U:20(qc=5)
REM Fe 3|2.2|2.0|1.0|8|9|10|40:41:32(qc=5)
REM 
CELL 1.54180    5.99905    5.33313    7.62755   90.00000   90.00000   90.00000
LATT -1
SFAC Li O  S  Fe 
Li     1 -0.4488810000000  0.0000000000000  0.1586320000000 1.0  -0.02
Li     1 -0.4488810000000  0.0000000000000 -0.1586320000000 1.0  -0.02
Li     1  0.2674770000000  0.5000000000000  0.0000000000000 1.0   0.03
O      2  0.5065490000000 -0.2595420000000  0.0000000000000 1.0   0.24
O      2  0.5065490000000  0.2595420000000  0.0000000000000 1.0   0.24
S      3 -0.0408860000000 -0.2414340000000 -0.2209560000000 1.0   0.00
S      3 -0.0408860000000  0.2414340000000  0.2209560000000 1.0   0.00
S      3 -0.0408860000000 -0.2414340000000  0.2209560000000 1.0   0.00
S      3 -0.0408860000000  0.2414340000000 -0.2209560000000 1.0   0.00
Fe     4 -0.0598450000000  0.2996460000000  0.5000000000000 1.0   2.64
Fe     4 -0.0598450000000 -0.2996460000000  0.5000000000000 1.0   2.64
Fe     4 -0.2929820000000 -0.5000000000000  0.0000000000000 1.0   2.86
END
