TITL LFSO-Li3Fe3S2O4-200929-155507-767947 -0.0540 192.238006 -5.54709015E+003 8.34557 8.72197 12 (Imm2) n - 1
REM
REM Run started: Tue, 29 Sep 2020 18:25:00 +0100 in /scratch/scratch/uccabz1/launch_tmp/launcher_2020-09-29-14-55-05-852127
REM CASTEP 19.11| from code version Version unavailable
REM Functional Perdew Burke Ernzerhof Relativity Koelling-Harmon Dispersion off
REM Cut-off 340.0000 eV Grid scale 1.7500 Gmax 16.5316 1/A FBSC none
REM MP grid 3 3 3 Offset 0.000 0.000 0.000 No. kpts 8 Spacing 0.07
REM Total runtime: 9692.03 s
REM Overall efficiency: 97.5714 %
REM
REM
REM
REM compiler GCC version 4.9.2
REM options -cpp -iprefix /scratch/UCL/applications/gcc/4.9.2/bin/../lib/gcc/x86_64-unknown-linux-gnu/4.9.2/ -mtune=corei7 -march=x86-64 -g -O2
REM COMMAND_LINE
REM seed -1122534228 1734530290 -537556896 480290421 -1138178551 2056356685 -800932363 703736263 834917367 1075133060 -794057300 354357307
REM
REM S 3|1.8|5|6|7|30:31:32(qc=5)
REM O 2|1.5|12|13|15|20:21(qc=5)
REM Li 1|1.3|8|9|10|10U:20(qc=5)
REM Fe 3|2.2|2.0|1.0|8|9|10|40:41:32(qc=5)
REM 
CELL 1.54180    5.67875    5.51776    7.30159  112.20036  112.88422   90.00000
LATT -1
SFAC Li O  S  Fe 
Li     1  0.5260330000000  0.2283580000000  0.4567160000000 1.0  -0.04
Li     1 -0.0693160000000  0.2283580000000  0.4567160000000 1.0  -0.04
Li     1  0.3890150000000  0.3890150000000 -0.2219690000000 1.0   0.05
O      2 -0.4257790000000  0.0394610000000 -0.3747090000000 1.0   0.15
O      2  0.0510700000000 -0.4141710000000 -0.3747090000000 1.0   0.15
O      2  0.0510700000000  0.0394610000000 -0.3747090000000 1.0   0.15
O      2 -0.4257790000000 -0.4141710000000 -0.3747090000000 1.0   0.15
S      3 -0.4162150000000  0.3444970000000  0.1675710000000 1.0   0.01
S      3 -0.4162150000000 -0.1769260000000  0.1675710000000 1.0   0.01
Fe     4 -0.0679980000000 -0.3019930000000  0.3960140000000 1.0   2.55
Fe     4  0.4640130000000 -0.3019930000000  0.3960140000000 1.0   2.55
Fe     4 -0.1504990000000 -0.1504990000000 -0.3009980000000 1.0   2.67
END
