TITL LFSO-Li2Fe3SO3-200912-085737-1b3852 -0.1662 240.342087 -9.21657168E+003 -17.6031 18.0743 18 (Cc) n - 1
REM
REM Run started: Sat, 12 Sep 2020 23:13:35 +0100 in /lustre/scratch/uccabz1/launch_tmp/launcher_2020-09-12-10-40-51-509365
REM CASTEP 20.1 from code version af48c487+ pr-geom-scf-spinfix Tue Jun 2 15:39:59 2020 +0100
REM Functional Perdew Burke Ernzerhof Relativity Koelling-Harmon Dispersion off
REM Cut-off 340.0000 eV Grid scale 1.7500 Gmax 16.5316 1/A FBSC none
REM MP grid 4 3 3 Offset 0.000 0.000 0.000 No. kpts 12 Spacing 0.07
REM Total runtime: 55626.7 s
REM Overall efficiency: 88.5714 %
REM
REM
REM
REM compiler GCC version 4.9.2
REM options -cpp -iprefix /lustre/shared/ucl/apps/gcc/4.9.2/bin/../lib/gcc/x86_64-unknown-linux-gnu/4.9.2/ -mtune=corei7 -march=x86-64 -g -Og
REM COMMAND_LINE
REM seed -1689124320 1385651929 2109256956 -327055085 2056570946 -2014900277 -428022643 -991383946 1526084582 -862296129 -512992776 -1024627902
REM
REM S 3|1.8|5|6|7|30:31:32(qc=5)
REM O 2|1.5|12|13|15|20:21(qc=5)
REM Li 1|1.3|8|9|10|10U:20(qc=5)
REM Fe 3|2.2|2.0|1.0|8|9|10|40:41:32(qc=5)
REM 
CELL 1.54180    5.46809    7.65524    7.65524   81.96431  119.52920  119.52920
LATT -1
SFAC Li O  S  Fe 
Li     1 -0.1966700000000  0.5517220000000 -0.2279960000000 1.0   0.05
Li     1  0.3033300000000 -0.2279960000000  0.5517220000000 1.0   0.05
Li     1 -0.3064920000000  0.3977870000000  0.2997510000000 1.0   0.04
Li     1  0.1935080000000  0.2997510000000  0.3977870000000 1.0   0.04
O      2  0.2630710000000  0.1922690000000  0.2240980000000 1.0  -0.22
O      2 -0.2369290000000  0.2240980000000  0.1922690000000 1.0  -0.22
O      2 -0.1672210000000  0.3014030000000 -0.1787150000000 1.0  -0.19
O      2  0.3327790000000 -0.1787150000000  0.3014030000000 1.0  -0.19
O      2 -0.5953450000000 -0.4503530000000 -0.4062950000000 1.0  -0.17
O      2 -0.0953450000000 -0.4062950000000 -0.4503530000000 1.0  -0.17
S      3 -0.4752390000000 -0.3474080000000  0.0751530000000 1.0  -0.14
S      3  0.0247610000000  0.0751530000000 -0.3474080000000 1.0  -0.14
Fe     4  0.1199110000000  0.4240650000000 -0.2980010000000 1.0  -3.00
Fe     4  0.6199110000000 -0.2980010000000  0.4240650000000 1.0  -3.00
Fe     4  0.5230480000000  0.1824510000000 -0.0837970000000 1.0  -2.73
Fe     4  0.0230480000000 -0.0837970000000  0.1824510000000 1.0  -2.73
Fe     4  0.0833960000000  0.1648660000000 -0.0582210000000 1.0  -2.44
Fe     4 -0.4166040000000 -0.0582210000000  0.1648660000000 1.0  -2.44
END
