TITL LFSO-Li2Fe2S3O-200913-043629-0e637a -0.0276 360.420027 -6.95246604E+003 -10.0630 10.6514 16 (P2) n - 1
REM
REM Run started: Sun, 13 Sep 2020 14:16:29 +0100 in /lustre/scratch/uccabz1/launch_tmp/launcher_2020-09-13-03-36-27-524222
REM CASTEP 20.1 from code version af48c487+ pr-geom-scf-spinfix Tue Jun 2 15:39:59 2020 +0100
REM Functional Perdew Burke Ernzerhof Relativity Koelling-Harmon Dispersion off
REM Cut-off 340.0000 eV Grid scale 1.7500 Gmax 16.5316 1/A FBSC none
REM MP grid 2 3 3 Offset 0.000 0.000 0.000 No. kpts 6 Spacing 0.07
REM Total runtime: 35392.6 s
REM Overall efficiency: 88 %
REM
REM
REM
REM compiler GCC version 4.9.2
REM options -cpp -iprefix /lustre/shared/ucl/apps/gcc/4.9.2/bin/../lib/gcc/x86_64-unknown-linux-gnu/4.9.2/ -mtune=corei7 -march=x86-64 -g -Og
REM COMMAND_LINE
REM seed 1741623824 -1113501681 1387200897 1094337027 -393681218 2038951246 1286005221 -1957152760 1694378264 429237795 -1282110220 78314557
REM
REM S 3|1.8|5|6|7|30:31:32(qc=5)
REM O 2|1.5|12|13|15|20:21(qc=5)
REM Li 1|1.3|8|9|10|10U:20(qc=5)
REM Fe 3|2.2|2.0|1.0|8|9|10|40:41:32(qc=5)
REM 
CELL 1.54180   10.03621    6.08901    6.65242   90.00000   90.00000  117.55461
LATT -1
SFAC Li O  S  Fe 
Li     1  0.3865500000000  0.2143560000000  0.3535520000000 1.0  -0.01
Li     1 -0.3865500000000 -0.2143560000000  0.3535520000000 1.0  -0.01
Li     1 -0.2018480000000 -0.0548960000000 -0.2102190000000 1.0  -0.04
Li     1  0.2018480000000  0.0548960000000 -0.2102190000000 1.0  -0.04
O      2 -0.2881220000000 -0.0065810000000 -0.4348640000000 1.0  -0.35
O      2  0.2881220000000  0.0065810000000 -0.4348640000000 1.0  -0.35
S      3  0.0537520000000  0.3124410000000  0.5310070000000 1.0   0.07
S      3 -0.0537520000000 -0.3124410000000  0.5310070000000 1.0   0.07
S      3 -0.1410340000000  0.1945870000000  0.1003460000000 1.0  -0.09
S      3  0.1410340000000 -0.1945870000000  0.1003460000000 1.0  -0.09
S      3 -0.3380620000000  0.4200520000000  0.2795490000000 1.0  -0.13
S      3  0.3380620000000 -0.4200520000000  0.2795490000000 1.0  -0.13
Fe     4 -0.0953140000000 -0.4111450000000  0.2014060000000 1.0  -2.47
Fe     4  0.0953140000000  0.4111450000000  0.2014060000000 1.0  -2.47
Fe     4 -0.1755600000000  0.2756980000000 -0.5489820000000 1.0  -2.01
Fe     4  0.1755600000000 -0.2756980000000 -0.5489820000000 1.0  -2.01
END
