TITL LFSO-LiFeSO-200909-030556-4ef80c 0.0038 217.585284 -7.22194561E+003 -4.45825 6.55490 16 (P2) n - 1
REM
REM Run started: Wed, 09 Sep 2020 13:46:11 +0100 in /lustre/scratch/uccabz1/launch_tmp/launcher_2020-09-09-12-18-23-096191
REM CASTEP 20.1 from code version af48c487+ pr-geom-scf-spinfix Tue Jun 2 15:39:59 2020 +0100
REM Functional Perdew Burke Ernzerhof Relativity Koelling-Harmon Dispersion off
REM Cut-off 340.0000 eV Grid scale 1.7500 Gmax 16.5316 1/A FBSC none
REM MP grid 5 3 3 Offset 0.000 0.000 0.000 No. kpts 15 Spacing 0.07
REM Total runtime: 34472 s
REM Overall efficiency: 98 %
REM
REM
REM
REM compiler GCC version 4.9.2
REM options -cpp -iprefix /lustre/shared/ucl/apps/gcc/4.9.2/bin/../lib/gcc/x86_64-unknown-linux-gnu/4.9.2/ -mtune=corei7 -march=x86-64 -g -Og
REM COMMAND_LINE
REM seed -994731692 -896291764 1881138152 1683114042 1491621737 1764122279 -188984689 102045420 1760724883 -1220550608 -1161788196 1437195033
REM
REM S 3|1.8|5|6|7|30:31:32(qc=5)
REM O 2|1.5|12|13|15|20:21(qc=5)
REM Li 1|1.3|8|9|10|10U:20(qc=5)
REM Fe 3|2.2|2.0|1.0|8|9|10|40:41:32(qc=5)
REM 
CELL 1.54180    3.39093    9.37681   12.29727  146.18750   90.00000   90.00000
LATT -1
SFAC Li O  S  Fe 
Li     1 -0.3769520000000 -0.2448730000000 -0.2451620000000 1.0   0.00
Li     1 -0.3769520000000  0.2448730000000  0.2451620000000 1.0   0.00
Li     1  0.0852580000000 -0.3128130000000  0.4765990000000 1.0  -0.00
Li     1  0.0852580000000  0.3128130000000 -0.4765990000000 1.0  -0.00
O      2  0.1132990000000  0.1203800000000  0.2266130000000 1.0  -0.01
O      2  0.1132990000000 -0.1203800000000 -0.2266130000000 1.0  -0.01
O      2 -0.4088570000000  0.4707240000000 -0.3352110000000 1.0  -0.29
O      2 -0.4088570000000 -0.4707240000000  0.3352110000000 1.0  -0.29
S      3  0.0949110000000 -0.1902210000000  0.0572510000000 1.0   0.01
S      3  0.0949110000000  0.1902210000000 -0.0572510000000 1.0   0.01
S      3 -0.4128360000000 -0.1396020000000  0.3256870000000 1.0  -0.02
S      3 -0.4128360000000  0.1396020000000 -0.3256870000000 1.0  -0.02
Fe     4  0.0864360000000 -0.2929460000000  0.1539470000000 1.0   0.51
Fe     4  0.0864360000000  0.2929460000000 -0.1539470000000 1.0   0.51
Fe     4  0.5900970000000  0.4604370000000  0.1448190000000 1.0  -2.44
Fe     4  0.5900970000000 -0.4604370000000 -0.1448190000000 1.0  -2.44
END
