TITL LFSO-LiFe3S2O3-200909-172617-a25112 -0.0096 277.380021 -9.42127043E+003 -17.4199 17.8746 18 (R3) n - 1
REM
REM Run started: Wed, 09 Sep 2020 23:19:27 +0100 in /lustre/scratch/uccabz1/launch_tmp/launcher_2020-09-09-16-26-15-164220
REM CASTEP 20.1 from code version af48c487+ pr-geom-scf-spinfix Tue Jun 2 15:39:59 2020 +0100
REM Functional Perdew Burke Ernzerhof Relativity Koelling-Harmon Dispersion off
REM Cut-off 340.0000 eV Grid scale 1.7500 Gmax 16.5316 1/A FBSC none
REM MP grid 3 3 3 Offset 0.000 0.000 0.000 No. kpts 6 Spacing 0.07
REM Total runtime: 21580.5 s
REM Overall efficiency: 98.125 %
REM
REM
REM
REM compiler GCC version 4.9.2
REM options -cpp -iprefix /lustre/shared/ucl/apps/gcc/4.9.2/bin/../lib/gcc/x86_64-unknown-linux-gnu/4.9.2/ -mtune=corei7 -march=x86-64 -g -Og
REM COMMAND_LINE
REM seed 260846869 -1417790362 1005466310 678296789 -2046952797 -1580785073 1787122622 945556737 1830456953 -88190948 1324200857 1894436108
REM
REM S 3|1.8|5|6|7|30:31:32(qc=5)
REM O 2|1.5|12|13|15|20:21(qc=5)
REM Li 1|1.3|8|9|10|10U:20(qc=5)
REM Fe 3|2.2|2.0|1.0|8|9|10|40:41:32(qc=5)
REM 
CELL 1.54180    7.18816    7.18816    7.18816   62.52122   62.52122   62.52122
LATT -1
SFAC Li O  S  Fe 
Li     1  0.5254830000000  0.5254830000000  0.5254830000000 1.0   0.01
Li     1  0.1978520000000  0.1978520000000  0.1978520000000 1.0  -0.08
O      2 -0.0865140000000 -0.4990540000000  0.4968960000000 1.0  -0.26
O      2  0.4968960000000 -0.0865140000000 -0.4990540000000 1.0  -0.26
O      2 -0.4990540000000  0.4968960000000 -0.0865140000000 1.0  -0.26
O      2 -0.5871020000000 -0.3420760000000  0.2599180000000 1.0  -0.13
O      2  0.2599180000000 -0.5871020000000 -0.3420760000000 1.0  -0.13
O      2 -0.3420760000000  0.2599180000000 -0.5871020000000 1.0  -0.13
S      3 -0.0846180000000  0.4427190000000 -0.0030030000000 1.0  -0.24
S      3 -0.0030030000000 -0.0846180000000  0.4427190000000 1.0  -0.24
S      3  0.4427190000000 -0.0030030000000 -0.0846180000000 1.0  -0.24
S      3 -0.0541410000000 -0.0541410000000 -0.0541410000000 1.0  -0.20
Fe     4 -0.4174750000000  0.4224160000000  0.1639540000000 1.0  -1.69
Fe     4  0.1639540000000 -0.4174750000000  0.4224160000000 1.0  -1.69
Fe     4  0.4224160000000  0.1639540000000 -0.4174750000000 1.0  -1.69
Fe     4 -0.1852130000000 -0.1752510000000  0.3379690000000 1.0  -3.40
Fe     4  0.3379690000000 -0.1852130000000 -0.1752510000000 1.0  -3.40
Fe     4 -0.1752510000000  0.3379690000000 -0.1852130000000 1.0  -3.40
END
