TITL LFSO-LiFe3S2O3-200909-202238-833ba6 0.0089 141.962183 -4.71146857E+003 7.02001 7.72479 9 (R3) n - 1
REM
REM Run started: Thu, 10 Sep 2020 00:12:36 +0100 in /lustre/scratch/uccabz1/launch_tmp/launcher_2020-09-09-19-22-37-021388
REM CASTEP 20.1 from code version af48c487+ pr-geom-scf-spinfix Tue Jun 2 15:39:59 2020 +0100
REM Functional Perdew Burke Ernzerhof Relativity Koelling-Harmon Dispersion off
REM Cut-off 340.0000 eV Grid scale 1.7500 Gmax 16.5316 1/A FBSC none
REM MP grid 3 3 5 Offset 0.000 0.000 0.000 No. kpts 18 Spacing 0.07
REM Total runtime: 13874.8 s
REM Overall efficiency: 95.7778 %
REM
REM
REM
REM compiler GCC version 4.9.2
REM options -cpp -iprefix /lustre/shared/ucl/apps/gcc/4.9.2/bin/../lib/gcc/x86_64-unknown-linux-gnu/4.9.2/ -mtune=corei7 -march=x86-64 -g -Og
REM COMMAND_LINE
REM seed 596207752 933464566 1776725131 1183197142 785348134 -686669519 1911135904 -819644994 1950061151 -145507429 758222422 759923782
REM
REM S 3|1.8|5|6|7|30:31:32(qc=5)
REM O 2|1.5|12|13|15|20:21(qc=5)
REM Li 1|1.3|8|9|10|10U:20(qc=5)
REM Fe 3|2.2|2.0|1.0|8|9|10|40:41:32(qc=5)
REM 
CELL 1.54180    6.94001    6.94001    5.25720   48.69653   48.69653   60.00000
LATT -1
SFAC Li O  S  Fe 
Li     1 -0.3139840000000 -0.3139840000000 -0.0580490000000 1.0  -0.09
O      2 -0.3226520000000  0.4422410000000 -0.1132550000000 1.0   0.20
O      2 -0.0063340000000 -0.3226520000000 -0.1132550000000 1.0   0.20
O      2  0.4422410000000 -0.0063340000000 -0.1132550000000 1.0   0.20
S      3 -0.0699930000000 -0.0699930000000  0.2099790000000 1.0  -0.11
S      3  0.1811380000000  0.1811380000000 -0.5434140000000 1.0  -0.18
Fe     4 -0.4512500000000  0.1649810000000  0.3725990000000 1.0   2.27
Fe     4 -0.0863310000000 -0.4512500000000  0.3725990000000 1.0   2.27
Fe     4  0.1649810000000 -0.0863310000000  0.3725990000000 1.0   2.27
END
