TITL LFSO-Li2FeSO-200912-060912-b32881 -0.0020 70.535675 -2.00556952E+003 3.98135 4.01636 5 (R3m) n - 1
REM
REM Run started: Sat, 12 Sep 2020 06:32:04 +0100 in /lustre/scratch/uccabz1/launch_tmp/launcher_2020-09-12-05-09-11-187495
REM CASTEP 20.1 from code version af48c487+ pr-geom-scf-spinfix Tue Jun 2 15:39:59 2020 +0100
REM Functional Perdew Burke Ernzerhof Relativity Koelling-Harmon Dispersion off
REM Cut-off 340.0000 eV Grid scale 1.7500 Gmax 16.5316 1/A FBSC none
REM MP grid 5 5 5 Offset 0.000 0.000 0.000 No. kpts 19 Spacing 0.07
REM Total runtime: 1911.38 s
REM Overall efficiency: 87.6667 %
REM
REM
REM
REM compiler GCC version 4.9.2
REM options -cpp -iprefix /lustre/shared/ucl/apps/gcc/4.9.2/bin/../lib/gcc/x86_64-unknown-linux-gnu/4.9.2/ -mtune=corei7 -march=x86-64 -g -Og
REM COMMAND_LINE
REM seed 193197768 1971199907 421371091 -1616269129 377809700 -587686777 785295031 1564445619 1898289956 237820757 1973135342 2109734397
REM
REM S 3|1.8|5|6|7|30:31:32(qc=5)
REM O 2|1.5|12|13|15|20:21(qc=5)
REM Li 1|1.3|8|9|10|10U:20(qc=5)
REM Fe 3|2.2|2.0|1.0|8|9|10|40:41:32(qc=5)
REM 
CELL 1.54180    6.57041    6.57041    6.57041   31.94227   31.94227   31.94227
LATT -1
SFAC Li O  S  Fe 
Li     1  0.3321280000000  0.3321280000000  0.3321280000000 1.0  -0.03
Li     1 -0.2287360000000 -0.2287360000000 -0.2287360000000 1.0   0.04
O      2 -0.3296650000000 -0.3296650000000 -0.3296650000000 1.0   0.25
S      3  0.1796620000000  0.1796620000000  0.1796620000000 1.0   0.28
Fe     4 -0.4294930000000 -0.4294930000000 -0.4294930000000 1.0   3.43
END
