TITL LFSO-Li4Fe2S3O2-200911-070109-ca51c2 -0.0263 206.970280 -4.31447208E+003 8.09567 8.15646 11 (C2/m) n - 1
REM
REM Run started: Fri, 11 Sep 2020 10:45:47 +0100 in /lustre/scratch/uccabz1/launch_tmp/launcher_2020-09-11-06-01-07-867675
REM CASTEP 20.1 from code version af48c487+ pr-geom-scf-spinfix Tue Jun 2 15:39:59 2020 +0100
REM Functional Perdew Burke Ernzerhof Relativity Koelling-Harmon Dispersion off
REM Cut-off 340.0000 eV Grid scale 1.7500 Gmax 16.5316 1/A FBSC none
REM MP grid 3 4 3 Offset 0.000 0.000 0.000 No. kpts 18 Spacing 0.07
REM Total runtime: 13597.2 s
REM Overall efficiency: 89.75 %
REM
REM
REM
REM compiler GCC version 4.9.2
REM options -cpp -iprefix /lustre/shared/ucl/apps/gcc/4.9.2/bin/../lib/gcc/x86_64-unknown-linux-gnu/4.9.2/ -mtune=corei7 -march=x86-64 -g -Og
REM COMMAND_LINE
REM seed 1867661385 -1824458675 1578374140 -1576662357 939056243 461878403 1641270805 -1403588489 -373181639 -263819238 1645879706 2106514514
REM
REM S 3|1.8|5|6|7|30:31:32(qc=5)
REM O 2|1.5|12|13|15|20:21(qc=5)
REM Li 1|1.3|8|9|10|10U:20(qc=5)
REM Fe 3|2.2|2.0|1.0|8|9|10|40:41:32(qc=5)
REM 
CELL 1.54180    7.18870    6.29431    7.84338   45.55825   62.72475   55.17674
LATT -1
SFAC Li O  S  Fe 
Li     1  0.3701490000000 -0.5346110000000  0.2358020000000 1.0  -0.01
Li     1  0.0713400000000  0.5346110000000 -0.2358020000000 1.0  -0.01
Li     1 -0.3701490000000  0.5346110000000 -0.2358020000000 1.0  -0.01
Li     1 -0.0713400000000 -0.5346110000000  0.2358020000000 1.0  -0.01
O      2 -0.5000000000000 -0.0000000000000  0.5000000000000 1.0   0.30
O      2 -0.0000000000000 -0.0000000000000 -0.5000000000000 1.0   0.30
S      3 -0.2747050000000  0.4987260000000  0.0506840000000 1.0   0.30
S      3  0.2747050000000 -0.4987260000000 -0.0506840000000 1.0   0.30
S      3 -0.0000000000000 -0.5000000000000  0.5000000000000 1.0   0.23
Fe     4 -0.2100950000000  0.0138620000000 -0.5936730000000 1.0   3.36
Fe     4  0.2100950000000 -0.0138620000000  0.5936730000000 1.0   3.36
END
