TITL LFSO-Li6FeSO3-200909-230758-cba3cb -0.0014 176.161329 -3.67987715E+003 4.00000 4.22549 11 (P3) n - 1
REM
REM Run started: Wed, 09 Sep 2020 23:21:43 +0100 in /lustre/scratch/uccabz1/launch_tmp/launcher_2020-09-09-22-07-55-631621
REM CASTEP 20.1 from code version af48c487+ pr-geom-scf-spinfix Tue Jun 2 15:39:59 2020 +0100
REM Functional Perdew Burke Ernzerhof Relativity Koelling-Harmon Dispersion off
REM Cut-off 340.0000 eV Grid scale 1.7500 Gmax 16.5316 1/A FBSC none
REM MP grid 3 3 3 Offset 0.000 0.000 0.000 No. kpts 8 Spacing 0.07
REM Total runtime: 966.9 s
REM Overall efficiency: 91.8 %
REM
REM
REM
REM compiler GCC version 4.9.2
REM options -cpp -iprefix /lustre/shared/ucl/apps/gcc/4.9.2/bin/../lib/gcc/x86_64-unknown-linux-gnu/4.9.2/ -mtune=corei7 -march=x86-64 -g -Og
REM COMMAND_LINE
REM seed -1052307820 380475629 1337789299 322346876 500162890 -672607641 -1131741304 1787210243 -726633839 -26949652 -372309956 2045196624
REM
REM S 3|1.8|5|6|7|30:31:32(qc=5)
REM O 2|1.5|12|13|15|20:21(qc=5)
REM Li 1|1.3|8|9|10|10U:20(qc=5)
REM Fe 3|2.2|2.0|1.0|8|9|10|40:41:32(qc=5)
REM 
CELL 1.54180    6.11278    5.76860    5.76860  120.00000   90.00000   90.00000
LATT -1
SFAC Li O  S  Fe 
Li     1 -0.2486080000000  0.1079190000000  0.3982390000000 1.0  -0.02
Li     1 -0.2486080000000 -0.3982390000000 -0.2903200000000 1.0  -0.02
Li     1 -0.2486080000000  0.2903200000000 -0.1079190000000 1.0  -0.02
Li     1  0.1423660000000  0.1257500000000  0.3805320000000 1.0  -0.02
Li     1  0.1423660000000 -0.3805320000000 -0.2547810000000 1.0  -0.02
Li     1  0.1423660000000  0.2547810000000 -0.1257500000000 1.0  -0.02
O      2 -0.0601730000000  0.3716670000000  0.3817960000000 1.0   0.22
O      2 -0.0601730000000 -0.3817960000000 -0.0101290000000 1.0   0.22
O      2 -0.0601730000000  0.0101290000000 -0.3716670000000 1.0   0.22
S      3  0.4428450000000  0.3333330000000 -0.3333330000000 1.0   0.00
Fe     4 -0.0461220000000 -0.3333330000000  0.3333330000000 1.0   3.47
END
