TITL LFSO-Li4Fe2S2O3-200911-130357-c153ff -0.2055 333.848523 -8.89644628E+003 -8.77864 9.42996 22 (P2) n - 1
REM
REM Run started: Fri, 11 Sep 2020 23:42:22 +0100 in /lustre/scratch/uccabz1/launch_tmp/launcher_2020-09-11-22-09-56-734067
REM CASTEP 20.1 from code version af48c487+ pr-geom-scf-spinfix Tue Jun 2 15:39:59 2020 +0100
REM Functional Perdew Burke Ernzerhof Relativity Koelling-Harmon Dispersion off
REM Cut-off 340.0000 eV Grid scale 1.7500 Gmax 16.5316 1/A FBSC none
REM MP grid 5 2 2 Offset 0.000 0.000 0.000 No. kpts 6 Spacing 0.07
REM Total runtime: 36303.8 s
REM Overall efficiency: 98.4 %
REM
REM
REM
REM compiler GCC version 4.9.2
REM options -cpp -iprefix /lustre/shared/ucl/apps/gcc/4.9.2/bin/../lib/gcc/x86_64-unknown-linux-gnu/4.9.2/ -mtune=corei7 -march=x86-64 -g -Og
REM COMMAND_LINE
REM seed 713576080 1688547282 1518856163 -833230278 1714407499 1844168971 1257895740 -949794368 -1899315242 -1752637924 1685097391 -876203621
REM
REM S 3|1.8|5|6|7|30:31:32(qc=5)
REM O 2|1.5|12|13|15|20:21(qc=5)
REM Li 1|1.3|8|9|10|10U:20(qc=5)
REM Fe 3|2.2|2.0|1.0|8|9|10|40:41:32(qc=5)
REM 
CELL 1.54180    3.49623   10.53851   10.45314  119.91004   90.00000   90.00000
LATT -1
SFAC Li O  S  Fe 
Li     1 -0.0755880000000 -0.0826490000000  0.2050290000000 1.0   0.04
Li     1 -0.0755880000000  0.0826490000000 -0.2050290000000 1.0   0.04
Li     1  0.5238810000000  0.1036430000000  0.2345460000000 1.0   0.01
Li     1  0.5238810000000 -0.1036430000000 -0.2345460000000 1.0   0.01
Li     1  0.0257590000000  0.2847970000000  0.3189380000000 1.0  -0.01
Li     1  0.0257590000000 -0.2847970000000 -0.3189380000000 1.0  -0.01
Li     1  0.1632740000000 -0.1049600000000 -0.0035290000000 1.0  -0.00
Li     1  0.1632740000000  0.1049600000000  0.0035290000000 1.0  -0.00
O      2 -0.4872860000000  0.3034900000000  0.4140260000000 1.0  -0.13
O      2 -0.4872860000000 -0.3034900000000 -0.4140260000000 1.0  -0.13
O      2  0.0214520000000 -0.0827950000000 -0.1654760000000 1.0  -0.01
O      2  0.0214520000000  0.0827950000000  0.1654760000000 1.0  -0.01
O      2 -0.5660050000000  0.1702400000000 -0.1323340000000 1.0  -0.24
O      2 -0.5660050000000 -0.1702400000000  0.1323340000000 1.0  -0.24
S      3 -0.0292650000000 -0.2028330000000  0.3921400000000 1.0  -0.05
S      3 -0.0292650000000  0.2028330000000 -0.3921400000000 1.0  -0.05
S      3  0.4617720000000 -0.4936080000000 -0.2010490000000 1.0  -0.12
S      3  0.4617720000000  0.4936080000000  0.2010490000000 1.0  -0.12
Fe     4  0.4318910000000 -0.3017850000000  0.1928220000000 1.0  -3.02
Fe     4  0.4318910000000  0.3017850000000 -0.1928220000000 1.0  -3.02
Fe     4 -0.5285300000000 -0.3193060000000  0.4145500000000 1.0  -0.86
Fe     4 -0.5285300000000  0.3193060000000 -0.4145500000000 1.0  -0.86
END
