TITL LFSO-Li6FeS2O2-200920-215437-3238db 0.3880 1432.659274 -7.08747195E+003 -7.97479 8.36211 22 (Pm) n - 1
REM
REM Run started: Tue, 22 Sep 2020 02:29:37 +0100 in /lustre/scratch/uccabz1/launch_tmp/launcher_2020-09-21-23-15-35-572796
REM CASTEP 20.1 from code version af48c487+ pr-geom-scf-spinfix Tue Jun 2 15:39:59 2020 +0100
REM Functional Perdew Burke Ernzerhof Relativity Koelling-Harmon Dispersion off
REM Cut-off 340.0000 eV Grid scale 1.7500 Gmax 16.5316 1/A FBSC none
REM MP grid 4 1 2 Offset 0.000 0.000 0.000 No. kpts 4 Spacing 0.07
REM Total runtime: 102113 s
REM Overall efficiency: 88.8571 %
REM
REM
REM
REM compiler GCC version 4.9.2
REM options -cpp -iprefix /lustre/shared/ucl/apps/gcc/4.9.2/bin/../lib/gcc/x86_64-unknown-linux-gnu/4.9.2/ -mtune=corei7 -march=x86-64 -g -Og
REM COMMAND_LINE
REM seed 2025665546 -1355694936 1013813315 1106172975 1019201344 -1358075187 -1128079253 -1582030273 -823884537 792760887 -430539175 -1373289000
REM
REM S 3|1.8|5|6|7|30:31:32(qc=5)
REM O 2|1.5|12|13|15|20:21(qc=5)
REM Li 1|1.3|8|9|10|10U:20(qc=5)
REM Fe 3|2.2|2.0|1.0|8|9|10|40:41:32(qc=5)
REM 
CELL 1.54180    3.84161   27.25637   14.26186   90.00000   73.61109   90.00000
LATT -1
SFAC Li O  S  Fe 
Li     1 -0.1067130000000  0.2370360000000  0.0598870000000 1.0  -0.01
Li     1 -0.1067130000000 -0.2370360000000  0.0598870000000 1.0  -0.01
Li     1  0.3063620000000 -0.2184490000000 -0.2606040000000 1.0   0.00
Li     1  0.3063620000000  0.2184490000000 -0.2606040000000 1.0   0.00
Li     1 -0.0252070000000  0.2154430000000 -0.4158770000000 1.0   0.02
Li     1 -0.0252070000000 -0.2154430000000 -0.4158770000000 1.0   0.02
Li     1 -0.4505230000000  0.1723640000000 -0.0601710000000 1.0   0.00
Li     1 -0.4505230000000 -0.1723640000000 -0.0601710000000 1.0   0.00
Li     1 -0.4168290000000  0.2007380000000 -0.5191430000000 1.0   0.04
Li     1 -0.4168290000000 -0.2007380000000 -0.5191430000000 1.0   0.04
Li     1 -0.1357400000000  0.1496810000000  0.1425470000000 1.0   0.04
Li     1 -0.1357400000000 -0.1496810000000  0.1425470000000 1.0   0.04
O      2  0.1322920000000 -0.1930100000000  0.4336150000000 1.0  -0.35
O      2  0.1322920000000  0.1930100000000  0.4336150000000 1.0  -0.35
O      2  0.4477770000000  0.2165200000000 -0.3888320000000 1.0  -0.23
O      2  0.4477770000000 -0.2165200000000 -0.3888320000000 1.0  -0.23
S      3  0.3536450000000  0.1936680000000  0.1482740000000 1.0  -0.03
S      3  0.3536450000000 -0.1936680000000  0.1482740000000 1.0  -0.03
S      3  0.0750190000000  0.2073350000000 -0.0928490000000 1.0  -0.02
S      3  0.0750190000000 -0.2073350000000 -0.0928490000000 1.0  -0.02
Fe     4  0.2344820000000 -0.1833580000000  0.3109560000000 1.0  -3.45
Fe     4  0.2344820000000  0.1833580000000  0.3109560000000 1.0  -3.45
END
