TITL LFSO-Li3Fe3S4O2-200929-151047-0de007 -0.0748 744.091781 -1.05597320E+004 -13.9165 15.6330 24 (Pba2) n - 1
REM
REM Run started: Wed, 30 Sep 2020 10:52:51 +0100 in /lustre/scratch/uccabz1/launch_tmp/launcher_2020-09-29-14-10-45-418894
REM CASTEP 20.1 from code version af48c487+ pr-geom-scf-spinfix Tue Jun 2 15:39:59 2020 +0100
REM Functional Perdew Burke Ernzerhof Relativity Koelling-Harmon Dispersion off
REM Cut-off 340.0000 eV Grid scale 1.7500 Gmax 16.5316 1/A FBSC none
REM MP grid 3 3 2 Offset 0.000 0.000 0.000 No. kpts 4 Spacing 0.07
REM Total runtime: 78746.4 s
REM Overall efficiency: 76.8462 %
REM
REM
REM
REM compiler GCC version 4.9.2
REM options -cpp -iprefix /lustre/shared/ucl/apps/gcc/4.9.2/bin/../lib/gcc/x86_64-unknown-linux-gnu/4.9.2/ -mtune=corei7 -march=x86-64 -g -Og
REM COMMAND_LINE
REM seed 34119193 -1225030677 -1105886430 221019672 -1710726683 1279110287 -2053604471 -1012770159 -193330388 -1650126915 1131086002 -663839467
REM
REM S 3|1.8|5|6|7|30:31:32(qc=5)
REM O 2|1.5|12|13|15|20:21(qc=5)
REM Li 1|1.3|8|9|10|10U:20(qc=5)
REM Fe 3|2.2|2.0|1.0|8|9|10|40:41:32(qc=5)
REM 
CELL 1.54180    6.62683    6.51707   17.22932   90.00000   90.00000   90.00000
LATT -1
SFAC Li O  S  Fe 
Li     1 -0.0130190000000 -0.2580110000000 -0.3540530000000 1.0   0.01
Li     1  0.0130190000000  0.2580110000000 -0.3540530000000 1.0   0.01
Li     1 -0.4869810000000  0.2419890000000 -0.3540530000000 1.0   0.01
Li     1  0.4869810000000 -0.2419890000000 -0.3540530000000 1.0   0.01
Li     1 -0.5000000000000 -0.0000000000000  0.4602430000000 1.0  -0.01
Li     1 -0.0000000000000  0.5000000000000  0.4602430000000 1.0  -0.01
O      2  0.0037700000000  0.2129060000000  0.4483740000000 1.0  -0.22
O      2 -0.0037700000000 -0.2129060000000  0.4483740000000 1.0  -0.22
O      2  0.4962300000000 -0.2870940000000  0.4483740000000 1.0  -0.22
O      2 -0.4962300000000  0.2870940000000  0.4483740000000 1.0  -0.22
S      3 -0.2697660000000 -0.4974340000000 -0.4078440000000 1.0   0.07
S      3  0.2697660000000  0.4974340000000 -0.4078440000000 1.0   0.07
S      3 -0.2302340000000  0.0025660000000 -0.4078440000000 1.0   0.07
S      3  0.2302340000000 -0.0025660000000 -0.4078440000000 1.0   0.07
S      3 -0.2279480000000 -0.5023560000000 -0.0731160000000 1.0  -0.09
S      3  0.2279480000000  0.5023560000000 -0.0731160000000 1.0  -0.09
S      3 -0.2720520000000 -0.0023560000000 -0.0731160000000 1.0  -0.09
S      3  0.2720520000000  0.0023560000000 -0.0731160000000 1.0  -0.09
Fe     4 -0.0087340000000  0.2186840000000 -0.0621890000000 1.0  -2.95
Fe     4  0.0087340000000 -0.2186840000000 -0.0621890000000 1.0  -2.95
Fe     4 -0.4912660000000 -0.2813160000000 -0.0621890000000 1.0  -2.95
Fe     4  0.4912660000000  0.2813160000000 -0.0621890000000 1.0  -2.95
Fe     4  0.0000000000000 -0.0000000000000 -0.5009610000000 1.0  -0.59
Fe     4  0.5000000000000  0.5000000000000 -0.5009610000000 1.0  -0.59
END
