TITL LFSO-Li4Fe2SO3-200910-235127-b680c0 0.0410 324.686250 -8.28844379E+003 15.6026 15.9225 20 (Cc) n - 1
REM
REM Run started: Fri, 11 Sep 2020 11:06:40 +0100 in /lustre/scratch/uccabz1/launch_tmp/launcher_2020-09-10-22-51-25-425584
REM CASTEP 20.1 from code version af48c487+ pr-geom-scf-spinfix Tue Jun 2 15:39:59 2020 +0100
REM Functional Perdew Burke Ernzerhof Relativity Koelling-Harmon Dispersion off
REM Cut-off 340.0000 eV Grid scale 1.7500 Gmax 16.5316 1/A FBSC none
REM MP grid 3 2 3 Offset 0.000 0.000 0.000 No. kpts 9 Spacing 0.07
REM Total runtime: 44764.5 s
REM Overall efficiency: 95.8333 %
REM
REM
REM
REM compiler GCC version 4.9.2
REM options -cpp -iprefix /lustre/shared/ucl/apps/gcc/4.9.2/bin/../lib/gcc/x86_64-unknown-linux-gnu/4.9.2/ -mtune=corei7 -march=x86-64 -g -Og
REM COMMAND_LINE
REM seed -998740886 1898449519 411851797 878125836 -1399308818 -1395286095 -753776485 727246685 1903514939 2028218143 -1021008267 -1348974316
REM
REM S 3|1.8|5|6|7|30:31:32(qc=5)
REM O 2|1.5|12|13|15|20:21(qc=5)
REM Li 1|1.3|8|9|10|10U:20(qc=5)
REM Fe 3|2.2|2.0|1.0|8|9|10|40:41:32(qc=5)
REM 
CELL 1.54180    6.01349    9.00623    6.86159   69.28090   90.00000  109.50272
LATT -1
SFAC Li O  S  Fe 
Li     1 -0.2047660000000  0.0188420000000 -0.2731220000000 1.0  -0.09
Li     1  0.2236080000000  0.0188420000000  0.2268780000000 1.0  -0.09
Li     1 -0.5408570000000  0.1645110000000 -0.1052510000000 1.0  -0.04
Li     1 -0.2946320000000  0.1645110000000  0.3947490000000 1.0  -0.04
Li     1  0.1970730000000  0.3516470000000  0.1759320000000 1.0  -0.02
Li     1  0.1545740000000  0.3516470000000 -0.3240680000000 1.0  -0.02
Li     1 -0.0512100000000 -0.2236160000000  0.0473760000000 1.0   0.00
Li     1 -0.1724050000000 -0.2236160000000  0.5473760000000 1.0   0.00
O      2 -0.4404790000000  0.0684210000000  0.1631100000000 1.0   0.24
O      2 -0.4911000000000  0.0684210000000 -0.3368900000000 1.0   0.24
O      2  0.0362970000000  0.2226970000000  0.4729330000000 1.0   0.19
O      2  0.1864000000000  0.2226970000000 -0.0270670000000 1.0   0.19
O      2 -0.0080530000000 -0.1283340000000 -0.2590240000000 1.0   0.33
O      2 -0.1202810000000 -0.1283340000000  0.2409760000000 1.0   0.33
S      3  0.2669510000000 -0.3452830000000  0.0915750000000 1.0   0.25
S      3  0.3877660000000 -0.3452830000000 -0.4084250000000 1.0   0.25
Fe     4  0.2260270000000  0.0981330000000 -0.4232790000000 1.0   3.37
Fe     4 -0.1278940000000  0.0981330000000  0.0767210000000 1.0   3.37
Fe     4  0.5214110000000 -0.1839400000000  0.2413080000000 1.0   3.58
Fe     4  0.2946490000000 -0.1839400000000 -0.2586920000000 1.0   3.58
END
