TITL LFSO-Li2Fe3S2O2-200921-012637-96ff3b -0.2810 173.104247 -4.46681873E+003 -3.87245 4.29947 9 (P3) n - 1
REM
REM Run started: Mon, 21 Sep 2020 06:15:57 +0100 in /lustre/scratch/uccabz1/launch_tmp/launcher_2020-09-21-00-26-36-213312
REM CASTEP 20.1 from code version af48c487+ pr-geom-scf-spinfix Tue Jun 2 15:39:59 2020 +0100
REM Functional Perdew Burke Ernzerhof Relativity Koelling-Harmon Dispersion off
REM Cut-off 340.0000 eV Grid scale 1.7500 Gmax 16.5316 1/A FBSC none
REM MP grid 5 5 2 Offset 0.000 0.000 0.000 No. kpts 9 Spacing 0.07
REM Total runtime: 20115.1 s
REM Overall efficiency: 97.1667 %
REM
REM
REM
REM compiler GCC version 4.9.2
REM options -cpp -iprefix /lustre/shared/ucl/apps/gcc/4.9.2/bin/../lib/gcc/x86_64-unknown-linux-gnu/4.9.2/ -mtune=corei7 -march=x86-64 -g -Og
REM COMMAND_LINE
REM seed -991551763 -885150304 -1890704606 -1858144715 -1674568771 1464902834 -1074624373 -655104022 49591388 1369575780 1361090141 -419319506
REM
REM S 3|1.8|5|6|7|30:31:32(qc=5)
REM O 2|1.5|12|13|15|20:21(qc=5)
REM Li 1|1.3|8|9|10|10U:20(qc=5)
REM Fe 3|2.2|2.0|1.0|8|9|10|40:41:32(qc=5)
REM 
CELL 1.54180    4.01316    4.01316   12.41095   90.00000   90.00000  120.00000
LATT -1
SFAC Li O  S  Fe 
Li     1  0.0000000000000  0.0000000000000  0.4160230000000 1.0   0.03
Li     1  0.3333330000000 -0.3333330000000  0.5807330000000 1.0  -0.01
O      2  0.0000000000000  0.0000000000000 -0.4419460000000 1.0  -0.02
O      2 -0.3333330000000  0.3333330000000  0.0801730000000 1.0   0.00
S      3  0.3333330000000 -0.3333330000000 -0.1903850000000 1.0   0.00
S      3 -0.3333330000000  0.3333330000000 -0.2333420000000 1.0  -0.00
Fe     4  0.3397490000000  0.0064190000000  0.1843050000000 1.0  -1.29
Fe     4 -0.3333310000000 -0.3397490000000  0.1843050000000 1.0  -1.29
Fe     4 -0.0064190000000  0.3333310000000  0.1843050000000 1.0  -1.29
END
