TITL LFSO-Li4Fe2SO4-200910-154511-a11e02 -0.0284 270.424889 -9.16084900E+003 -8.68423 9.62927 22 (R3m) n - 1
REM
REM Run started: Fri, 11 Sep 2020 00:56:51 +0100 in /lustre/scratch/uccabz1/launch_tmp/launcher_2020-09-10-14-45-09-921925
REM CASTEP 20.1 from code version af48c487+ pr-geom-scf-spinfix Tue Jun 2 15:39:59 2020 +0100
REM Functional Perdew Burke Ernzerhof Relativity Koelling-Harmon Dispersion off
REM Cut-off 340.0000 eV Grid scale 1.7500 Gmax 16.5316 1/A FBSC none
REM MP grid 3 3 2 Offset 0.000 0.000 0.000 No. kpts 7 Spacing 0.07
REM Total runtime: 35808.6 s
REM Overall efficiency: 91.875 %
REM
REM
REM
REM compiler GCC version 4.9.2
REM options -cpp -iprefix /lustre/shared/ucl/apps/gcc/4.9.2/bin/../lib/gcc/x86_64-unknown-linux-gnu/4.9.2/ -mtune=corei7 -march=x86-64 -g -Og
REM COMMAND_LINE
REM seed 81785197 -886394638 687132024 755855452 -1551493019 208263790 666589311 -230906107 -453496100 1296971084 1174324306 2109594236
REM
REM S 3|1.8|5|6|7|30:31:32(qc=5)
REM O 2|1.5|12|13|15|20:21(qc=5)
REM Li 1|1.3|8|9|10|10U:20(qc=5)
REM Fe 3|2.2|2.0|1.0|8|9|10|40:41:32(qc=5)
REM 
CELL 1.54180    6.56237    6.56237    8.18114   66.35510   66.35510   60.00000
LATT -1
SFAC Li O  S  Fe 
Li     1 -0.1543420000000  0.3455690000000 -0.0369890000000 1.0   0.01
Li     1  0.3455690000000 -0.1542370000000 -0.0369890000000 1.0   0.01
Li     1 -0.1542370000000 -0.1543420000000 -0.0369890000000 1.0   0.01
Li     1 -0.4700810000000  0.5299510000000 -0.1543320000000 1.0   0.02
Li     1  0.5299510000000  0.0944620000000 -0.1543320000000 1.0   0.02
Li     1  0.0944620000000 -0.4700810000000 -0.1543320000000 1.0   0.02
Li     1  0.0723600000000  0.0723600000000 -0.2170790000000 1.0  -0.02
Li     1 -0.3673140000000 -0.3673140000000  0.1019420000000 1.0   0.05
O      2  0.1778490000000  0.1779480000000 -0.0550490000000 1.0  -0.07
O      2  0.1779480000000 -0.3007480000000 -0.0550490000000 1.0  -0.07
O      2 -0.3007480000000  0.1778490000000 -0.0550490000000 1.0  -0.07
O      2 -0.2703900000000  0.3081950000000  0.2323170000000 1.0  -0.11
O      2  0.3081950000000 -0.2701220000000  0.2323170000000 1.0  -0.11
O      2 -0.2701220000000 -0.2703900000000  0.2323170000000 1.0  -0.11
O      2 -0.2891820000000 -0.2891820000000 -0.1324540000000 1.0  -0.02
O      2  0.1552500000000  0.1552500000000 -0.4657490000000 1.0   0.10
S      3 -0.1544410000000 -0.1544410000000  0.4633220000000 1.0   0.06
S      3  0.2275580000000  0.2275580000000  0.3173270000000 1.0   0.17
Fe     4  0.0508280000000 -0.3234730000000  0.2221680000000 1.0  -1.70
Fe     4 -0.3234730000000  0.0504780000000  0.2221680000000 1.0  -1.70
Fe     4  0.0504780000000  0.0508280000000  0.2221680000000 1.0  -1.70
Fe     4  0.5363550000000  0.5363550000000 -0.6090630000000 1.0  -3.49
END
