TITL LFSO-LiFe3SO4-200909-011620-4197d0 -0.0307 235.611977 -9.68700018E+003 19.6003 20.0754 18 (Pmn21) n - 1
REM
REM Run started: Wed, 09 Sep 2020 03:27:50 +0100 in /lustre/scratch/uccabz1/launch_tmp/launcher_2020-09-09-00-16-18-976138
REM CASTEP 20.1 from code version af48c487+ pr-geom-scf-spinfix Tue Jun 2 15:39:59 2020 +0100
REM Functional Perdew Burke Ernzerhof Relativity Koelling-Harmon Dispersion off
REM Cut-off 340.0000 eV Grid scale 1.7500 Gmax 16.5316 1/A FBSC none
REM MP grid 4 3 2 Offset 0.000 0.000 0.000 No. kpts 4 Spacing 0.07
REM Total runtime: 8924.26 s
REM Overall efficiency: 96.7143 %
REM
REM
REM
REM compiler GCC version 4.9.2
REM options -cpp -iprefix /lustre/shared/ucl/apps/gcc/4.9.2/bin/../lib/gcc/x86_64-unknown-linux-gnu/4.9.2/ -mtune=corei7 -march=x86-64 -g -Og
REM COMMAND_LINE
REM seed -1779508450 -1053212446 780880281 -2005188316 -502325919 -5150263 1638052214 -662159731 -971861151 -1869154343 -1428161006 842855655
REM
REM S 3|1.8|5|6|7|30:31:32(qc=5)
REM O 2|1.5|12|13|15|20:21(qc=5)
REM Li 1|1.3|8|9|10|10U:20(qc=5)
REM Fe 3|2.2|2.0|1.0|8|9|10|40:41:32(qc=5)
REM 
CELL 1.54180    4.04650    6.15125    9.46572   90.00000   90.00000   90.00000
LATT -1
SFAC Li O  S  Fe 
Li     1  0.2183930000000 -0.2653790000000  0.0000000000000 1.0  -0.14
Li     1 -0.2183930000000  0.2346210000000 -0.5000000000000 1.0  -0.14
O      2 -0.2719680000000 -0.2657410000000  0.1315600000000 1.0   0.31
O      2  0.2719680000000  0.2342590000000  0.3684400000000 1.0   0.31
O      2  0.2719680000000  0.2342590000000 -0.3684400000000 1.0   0.31
O      2 -0.2719680000000 -0.2657410000000 -0.1315600000000 1.0   0.31
O      2 -0.2836940000000  0.3227440000000  0.1474970000000 1.0   0.26
O      2  0.2836940000000 -0.1772560000000  0.3525030000000 1.0   0.26
O      2  0.2836940000000 -0.1772560000000 -0.3525030000000 1.0   0.26
O      2 -0.2836940000000  0.3227440000000 -0.1474970000000 1.0   0.26
S      3  0.2103470000000  0.0936810000000  0.0000000000000 1.0   0.05
S      3 -0.2103470000000 -0.4063190000000  0.5000000000000 1.0   0.05
Fe     4 -0.3115490000000  0.0300090000000 -0.1380690000000 1.0   3.09
Fe     4  0.3115490000000 -0.4699910000000 -0.3619310000000 1.0   3.09
Fe     4  0.3115490000000 -0.4699910000000  0.3619310000000 1.0   3.09
Fe     4 -0.3115490000000  0.0300090000000  0.1380690000000 1.0   3.09
Fe     4  0.2727540000000  0.0131590000000 -0.5000000000000 1.0   2.57
Fe     4 -0.2727540000000 -0.4868410000000  0.0000000000000 1.0   2.57
END
