TITL LFSO-Li6FeS2O2-200920-202913-a339b9 0.0293 239.282668 -3.54582020E+003 -3.94108 4.08966 11 (Amm2) n - 1
REM
REM Run started: Sun, 20 Sep 2020 22:15:09 +0100 in /lustre/scratch/uccabz1/launch_tmp/launcher_2020-09-20-19-29-11-890517
REM CASTEP 20.1 from code version af48c487+ pr-geom-scf-spinfix Tue Jun 2 15:39:59 2020 +0100
REM Functional Perdew Burke Ernzerhof Relativity Koelling-Harmon Dispersion off
REM Cut-off 340.0000 eV Grid scale 1.7500 Gmax 16.5316 1/A FBSC none
REM MP grid 4 2 2 Offset 0.000 0.000 0.000 No. kpts 4 Spacing 0.07
REM Total runtime: 6666.6 s
REM Overall efficiency: 95.75 %
REM
REM
REM
REM compiler GCC version 4.9.2
REM options -cpp -iprefix /lustre/shared/ucl/apps/gcc/4.9.2/bin/../lib/gcc/x86_64-unknown-linux-gnu/4.9.2/ -mtune=corei7 -march=x86-64 -g -Og
REM COMMAND_LINE
REM seed -1418614413 -602857876 1368919113 -693546970 547653598 1339208293 -1156871302 -752517555 -1451153322 1697115784 -1002644922 -2139625594
REM
REM S 3|1.8|5|6|7|30:31:32(qc=5)
REM O 2|1.5|12|13|15|20:21(qc=5)
REM Li 1|1.3|8|9|10|10U:20(qc=5)
REM Fe 3|2.2|2.0|1.0|8|9|10|40:41:32(qc=5)
REM 
CELL 1.54180    3.81354    7.52985    8.61366   90.00000   90.00000  104.66858
LATT -1
SFAC Li O  S  Fe 
Li     1 -0.0756700000000  0.1953920000000  0.1696780000000 1.0  -0.00
Li     1 -0.2710620000000 -0.1953920000000 -0.1696780000000 1.0  -0.00
Li     1 -0.2710620000000 -0.1953920000000  0.1696780000000 1.0  -0.00
Li     1 -0.0756700000000  0.1953920000000 -0.1696780000000 1.0  -0.00
Li     1  0.1253550000000 -0.4035230000000  0.0000000000000 1.0   0.00
Li     1  0.5288780000000  0.4035230000000 -0.0000000000000 1.0   0.00
O      2 -0.0034520000000  0.3354130000000  0.0000000000000 1.0  -0.03
O      2 -0.3388650000000 -0.3354130000000  0.0000000000000 1.0  -0.03
S      3  0.3321130000000  0.0000000000000 -0.2502420000000 1.0  -0.16
S      3  0.3321130000000  0.0000000000000  0.2502420000000 1.0  -0.16
Fe     4  0.3552810000000  0.0000000000000  0.5000000000000 1.0  -3.56
END
