TITL LFSO-Li2Fe2S2O-200913-114659-fddb64 0.0049 204.910641 -6.34651745E+003 -0.717641 12.7740 14 (P21) n - 1
REM
REM Run started: Sun, 13 Sep 2020 20:20:16 +0100 in /lustre/scratch/uccabz1/launch_tmp/launcher_2020-09-13-10-46-57-463330
REM CASTEP 20.1 from code version af48c487+ pr-geom-scf-spinfix Tue Jun 2 15:39:59 2020 +0100
REM Functional Perdew Burke Ernzerhof Relativity Koelling-Harmon Dispersion off
REM Cut-off 340.0000 eV Grid scale 1.7500 Gmax 16.5316 1/A FBSC none
REM MP grid 5 4 1 Offset 0.000 0.000 0.000 No. kpts 10 Spacing 0.07
REM Total runtime: 32758.1 s
REM Overall efficiency: 76.6 %
REM
REM
REM
REM compiler GCC version 4.9.2
REM options -cpp -iprefix /lustre/shared/ucl/apps/gcc/4.9.2/bin/../lib/gcc/x86_64-unknown-linux-gnu/4.9.2/ -mtune=corei7 -march=x86-64 -g -Og
REM COMMAND_LINE
REM seed 1521020413 2003295271 202802890 983667180 1397492872 80620391 1584600950 1983812902 -765692597 501552931 -1761119948 -1170031284
REM
REM S 3|1.8|5|6|7|30:31:32(qc=5)
REM O 2|1.5|12|13|15|20:21(qc=5)
REM Li 1|1.3|8|9|10|10U:20(qc=5)
REM Fe 3|2.2|2.0|1.0|8|9|10|40:41:32(qc=5)
REM 
CELL 1.54180    3.50517    3.77569   15.48316   90.00000   90.00000   89.87596
LATT -1
SFAC Li O  S  Fe 
Li     1  0.6269880000000  0.2415990000000  0.4149570000000 1.0   0.11
Li     1 -0.6269880000000 -0.2415990000000 -0.0850430000000 1.0   0.11
Li     1  0.2733920000000 -0.7502890000000  0.0433730000000 1.0   0.02
Li     1 -0.2733920000000  0.7502890000000 -0.4566270000000 1.0   0.02
O      2 -0.3341030000000 -0.2588020000000  0.4153860000000 1.0  -0.22
O      2  0.3341030000000  0.2588020000000 -0.0846140000000 1.0  -0.22
S      3  0.6468590000000 -0.2554310000000  0.0929950000000 1.0   0.16
S      3 -0.6468590000000  0.2554310000000 -0.4070050000000 1.0   0.16
S      3  0.1539630000000  0.2370700000000  0.2721160000000 1.0  -0.06
S      3 -0.1539630000000 -0.2370700000000 -0.2278840000000 1.0  -0.06
Fe     4  0.1341940000000 -0.2656000000000  0.1905560000000 1.0   2.81
Fe     4 -0.1341940000000  0.2656000000000 -0.3094440000000 1.0   2.81
Fe     4  0.1592710000000 -0.2620440000000  0.3571760000000 1.0  -3.19
Fe     4 -0.1592710000000  0.2620440000000 -0.1428240000000 1.0  -3.19
END
