TITL LFSO-Li4Fe3SO4-200928-151050-6984f7 -0.0112 150.551325 -5.44578367E+003 10.4114 10.7312 12 (Cm) n - 1
REM
REM Run started: Mon, 28 Sep 2020 19:20:03 +0100 in /lustre/scratch/uccabz1/launch_tmp/launcher_2020-09-28-14-10-48-967114
REM CASTEP 20.1 from code version af48c487+ pr-geom-scf-spinfix Tue Jun 2 15:39:59 2020 +0100
REM Functional Perdew Burke Ernzerhof Relativity Koelling-Harmon Dispersion off
REM Cut-off 340.0000 eV Grid scale 1.7500 Gmax 16.5316 1/A FBSC none
REM MP grid 5 3 3 Offset 0.000 0.000 0.000 No. kpts 16 Spacing 0.07
REM Total runtime: 16310.5 s
REM Overall efficiency: 97.0833 %
REM
REM
REM
REM compiler GCC version 4.9.2
REM options -cpp -iprefix /lustre/shared/ucl/apps/gcc/4.9.2/bin/../lib/gcc/x86_64-unknown-linux-gnu/4.9.2/ -mtune=corei7 -march=x86-64 -g -Og
REM COMMAND_LINE
REM seed 622612985 -1314933780 -2001797332 -1568091692 1271430306 90255701 -87218571 1754046069 -655104173 -1956827103 1475854219 113767481
REM
REM S 3|1.8|5|6|7|30:31:32(qc=5)
REM O 2|1.5|12|13|15|20:21(qc=5)
REM Li 1|1.3|8|9|10|10U:20(qc=5)
REM Fe 3|2.2|2.0|1.0|8|9|10|40:41:32(qc=5)
REM 
CELL 1.54180    2.98641    7.62651    7.62651  119.90367   89.49709   89.49709
LATT -1
SFAC Li O  S  Fe 
Li     1 -0.5953120000000 -0.3112640000000 -0.0507150000000 1.0   0.03
Li     1 -0.5953120000000 -0.0507150000000 -0.3112640000000 1.0   0.03
Li     1 -0.0962340000000  0.2103920000000 -0.3254560000000 1.0  -0.03
Li     1 -0.0962340000000 -0.3254560000000  0.2103920000000 1.0  -0.03
O      2 -0.1215590000000  0.1167420000000 -0.1267760000000 1.0   0.25
O      2 -0.1215590000000 -0.1267760000000  0.1167420000000 1.0   0.25
O      2 -0.5950460000000  0.5204880000000  0.0725490000000 1.0   0.36
O      2 -0.5950460000000  0.0725490000000  0.5204880000000 1.0   0.36
S      3  0.2756400000000 -0.4155740000000 -0.4155740000000 1.0  -0.02
Fe     4  0.3634830000000  0.2733660000000  0.0448660000000 1.0   3.36
Fe     4  0.3634830000000  0.0448660000000  0.2733660000000 1.0   3.36
Fe     4 -0.2173390000000  0.3697970000000  0.3697970000000 1.0   2.50
END
