TITL LFSO-Li4Fe2S2O3-200911-100551-1c0d97 0.0751 162.679949 -4.44706480E+003 7.30023 7.43969 11 (Immm) n - 1
REM
REM Run started: Fri, 11 Sep 2020 11:32:48 +0100 in /lustre/scratch/uccabz1/launch_tmp/launcher_2020-09-11-09-05-48-637520
REM CASTEP 20.1 from code version af48c487+ pr-geom-scf-spinfix Tue Jun 2 15:39:59 2020 +0100
REM Functional Perdew Burke Ernzerhof Relativity Koelling-Harmon Dispersion off
REM Cut-off 340.0000 eV Grid scale 1.7500 Gmax 16.5316 1/A FBSC none
REM MP grid 6 2 2 Offset 0.000 0.000 0.000 No. kpts 9 Spacing 0.07
REM Total runtime: 5316.48 s
REM Overall efficiency: 94.5714 %
REM
REM
REM
REM compiler GCC version 4.9.2
REM options -cpp -iprefix /lustre/shared/ucl/apps/gcc/4.9.2/bin/../lib/gcc/x86_64-unknown-linux-gnu/4.9.2/ -mtune=corei7 -march=x86-64 -g -Og
REM COMMAND_LINE
REM seed 295233563 -678911844 1574226577 -1329857592 797098198 1597858910 160616158 -1919371722 34914191 -1176710392 1675277897 -1208059657
REM
REM S 3|1.8|5|6|7|30:31:32(qc=5)
REM O 2|1.5|12|13|15|20:21(qc=5)
REM Li 1|1.3|8|9|10|10U:20(qc=5)
REM Fe 3|2.2|2.0|1.0|8|9|10|40:41:32(qc=5)
REM 
CELL 1.54180    2.73531    7.84229    7.84229   92.28589   79.95655   79.95655
LATT -1
SFAC Li O  S  Fe 
Li     1  0.3518370000000 -0.2364840000000  0.5328090000000 1.0  -0.02
Li     1  0.6481630000000 -0.7635160000000 -0.5328090000000 1.0  -0.02
Li     1 -0.6481630000000  0.5328090000000 -0.2364840000000 1.0  -0.02
Li     1 -0.3518370000000  0.4671910000000  0.2364840000000 1.0  -0.02
O      2  0.2350650000000 -0.7350650000000  0.2649350000000 1.0   0.21
O      2 -0.2350650000000  0.7350650000000 -0.2649350000000 1.0   0.21
O      2 -0.5000000000000 -0.0000000000000  0.0000000000000 1.0   0.25
S      3  0.0000000000000  0.2758710000000 -0.2758710000000 1.0   0.07
S      3  0.0000000000000 -0.2758710000000  0.2758710000000 1.0   0.07
Fe     4 -0.1319640000000  0.1319640000000  0.1319640000000 1.0   3.29
Fe     4  0.1319640000000 -0.1319640000000 -0.1319640000000 1.0   3.29
END
