TITL LFSO-Li4Fe2S3O-200911-040344-cc2416 0.0170 148.091963 -3.87350273E+003 5.72159 5.87968 10 (C2/m) n - 1
REM
REM Run started: Fri, 11 Sep 2020 06:43:11 +0100 in /lustre/scratch/uccabz1/launch_tmp/launcher_2020-09-11-03-03-42-024457
REM CASTEP 20.1 from code version af48c487+ pr-geom-scf-spinfix Tue Jun 2 15:39:59 2020 +0100
REM Functional Perdew Burke Ernzerhof Relativity Koelling-Harmon Dispersion off
REM Cut-off 340.0000 eV Grid scale 1.7500 Gmax 16.5316 1/A FBSC none
REM MP grid 5 4 2 Offset 0.000 0.000 0.000 No. kpts 20 Spacing 0.07
REM Total runtime: 9650.94 s
REM Overall efficiency: 95.1111 %
REM
REM
REM
REM compiler GCC version 4.9.2
REM options -cpp -iprefix /lustre/shared/ucl/apps/gcc/4.9.2/bin/../lib/gcc/x86_64-unknown-linux-gnu/4.9.2/ -mtune=corei7 -march=x86-64 -g -Og
REM COMMAND_LINE
REM seed -1539706140 -1397006771 102974796 -404876221 1853198205 470528711 805855076 499050009 19693384 -1756846574 1574499365 -403497335
REM
REM S 3|1.8|5|6|7|30:31:32(qc=5)
REM O 2|1.5|12|13|15|20:21(qc=5)
REM Li 1|1.3|8|9|10|10U:20(qc=5)
REM Fe 3|2.2|2.0|1.0|8|9|10|40:41:32(qc=5)
REM 
CELL 1.54180    3.33736    4.76645    9.74356  104.15791   99.50244   90.00000
LATT -1
SFAC Li O  S  Fe 
Li     1 -0.4182170000000  0.3181060000000  0.1264500000000 1.0   0.00
Li     1  0.4182170000000  0.1916570000000 -0.1264500000000 1.0   0.00
Li     1  0.4182170000000 -0.3181060000000 -0.1264500000000 1.0   0.00
Li     1 -0.4182170000000 -0.1916570000000  0.1264500000000 1.0   0.00
O      2  0.0000000000000 -0.5000000000000  0.0000000000000 1.0   0.01
S      3  0.6754940000000  0.1809260000000  0.3618520000000 1.0   0.12
S      3 -0.6754940000000 -0.1809260000000 -0.3618520000000 1.0   0.12
S      3  0.0000000000000 -0.0000000000000  0.0000000000000 1.0   0.01
Fe     4  0.2492330000000  0.2602790000000 -0.4794410000000 1.0   2.73
Fe     4 -0.2492330000000 -0.2602790000000  0.4794410000000 1.0   2.73
END
