TITL LFSO-Li2Fe2SO2-200912-234942-22ec56 -0.0041 91.544327 -3.30409865E+003 2.36606 2.55975 7 (Amm2) n - 1
REM
REM Run started: Sun, 13 Sep 2020 00:36:42 +0100 in /lustre/scratch/uccabz1/launch_tmp/launcher_2020-09-12-22-49-40-832821
REM CASTEP 20.1 from code version af48c487+ pr-geom-scf-spinfix Tue Jun 2 15:39:59 2020 +0100
REM Functional Perdew Burke Ernzerhof Relativity Koelling-Harmon Dispersion off
REM Cut-off 340.0000 eV Grid scale 1.7500 Gmax 16.5316 1/A FBSC none
REM MP grid 6 5 2 Offset 0.000 0.000 0.000 No. kpts 15 Spacing 0.07
REM Total runtime: 2902.3 s
REM Overall efficiency: 91.1429 %
REM
REM
REM
REM compiler GCC version 4.9.2
REM options -cpp -iprefix /lustre/shared/ucl/apps/gcc/4.9.2/bin/../lib/gcc/x86_64-unknown-linux-gnu/4.9.2/ -mtune=corei7 -march=x86-64 -g -Og
REM COMMAND_LINE
REM seed 605663162 -2088375080 858908570 1982203521 941044153 226089831 542564268 -653822690 -1047267920 178112904 1274770158 -574658592
REM
REM S 3|1.8|5|6|7|30:31:32(qc=5)
REM O 2|1.5|12|13|15|20:21(qc=5)
REM Li 1|1.3|8|9|10|10U:20(qc=5)
REM Fe 3|2.2|2.0|1.0|8|9|10|40:41:32(qc=5)
REM 
CELL 1.54180    2.62459    3.13610   11.23193   98.02506   90.00000   90.00000
LATT -1
SFAC Li O  S  Fe 
Li     1 -0.5000000000000 -0.2776030000000  0.1918200000000 1.0   0.00
Li     1 -0.5000000000000 -0.4694240000000 -0.1918200000000 1.0   0.00
O      2 -0.5000000000000  0.2710780000000  0.2838680000000 1.0   0.07
O      2 -0.5000000000000 -0.0127900000000 -0.2838680000000 1.0   0.07
S      3  0.0000000000000 -0.3352090000000  0.0000000000000 1.0   0.01
Fe     4 -0.5000000000000 -0.0814860000000 -0.4343990000000 1.0   1.11
Fe     4 -0.5000000000000  0.3529140000000  0.4343990000000 1.0   1.11
END
