TITL LFSO-Li3Fe3S4O2-200929-140127-a60fbd -0.0229 165.823197 -5.27684102E+003 5.00836 5.63556 12 (F222) n - 1
REM
REM Run started: Tue, 29 Sep 2020 15:07:02 +0100 in /lustre/scratch/uccabz1/launch_tmp/launcher_2020-09-29-13-01-25-314985
REM CASTEP 20.1 from code version af48c487+ pr-geom-scf-spinfix Tue Jun 2 15:39:59 2020 +0100
REM Functional Perdew Burke Ernzerhof Relativity Koelling-Harmon Dispersion off
REM Cut-off 340.0000 eV Grid scale 1.7500 Gmax 16.5316 1/A FBSC none
REM MP grid 4 4 3 Offset 0.000 0.000 0.000 No. kpts 16 Spacing 0.07
REM Total runtime: 5774.58 s
REM Overall efficiency: 97 %
REM
REM
REM
REM compiler GCC version 4.9.2
REM options -cpp -iprefix /lustre/shared/ucl/apps/gcc/4.9.2/bin/../lib/gcc/x86_64-unknown-linux-gnu/4.9.2/ -mtune=corei7 -march=x86-64 -g -Og
REM COMMAND_LINE
REM seed 1154907418 -991218246 -1690500949 611327067 1840933529 1585895670 1243288302 -1288105546 -1612886502 -1438457253 2037572829 441666933
REM
REM S 3|1.8|5|6|7|30:31:32(qc=5)
REM O 2|1.5|12|13|15|20:21(qc=5)
REM Li 1|1.3|8|9|10|10U:20(qc=5)
REM Fe 3|2.2|2.0|1.0|8|9|10|40:41:32(qc=5)
REM 
CELL 1.54180    5.03027    5.03027    7.39597  107.33776  107.33776   97.10530
LATT -1
SFAC Li O  S  Fe 
Li     1 -0.3369970000000 -0.3369970000000 -0.0000000000000 1.0  -0.00
Li     1  0.3369980000000  0.3369980000000 -0.0000000000000 1.0  -0.00
Li     1  0.0000000000000  0.0000000000000 -0.0000000000000 1.0   0.01
O      2 -0.3872040000000  0.1127960000000  0.2255920000000 1.0   0.27
O      2  0.8872040000000  0.3872040000000 -0.2255920000000 1.0   0.27
S      3  0.2759550000000  0.4834350000000  0.2926030000000 1.0  -0.07
S      3  0.1908320000000 -0.0166480000000 -0.2926030000000 1.0  -0.07
S      3 -0.4834350000000 -0.2759550000000 -0.2926030000000 1.0  -0.07
S      3  0.0166480000000 -0.1908310000000  0.2926030000000 1.0  -0.07
Fe     4  0.2578800000000  0.2578810000000 -0.4842390000000 1.0   1.12
Fe     4 -0.2578800000000 -0.2578800000000  0.4842390000000 1.0   1.12
Fe     4  0.7500000000000  0.2500000000000 -0.5000000000000 1.0   2.51
END
