TITL LFSO-Li2Fe3S3O-200912-165926-20ce6c 0.0103 138.866870 -4.33944347E+003 5.90629 6.31907 9 (R3) n - 1
REM
REM Run started: Sat, 12 Sep 2020 19:11:16 +0100 in /lustre/scratch/uccabz1/launch_tmp/launcher_2020-09-12-15-59-24-394485
REM CASTEP 20.1 from code version af48c487+ pr-geom-scf-spinfix Tue Jun 2 15:39:59 2020 +0100
REM Functional Perdew Burke Ernzerhof Relativity Koelling-Harmon Dispersion off
REM Cut-off 340.0000 eV Grid scale 1.7500 Gmax 16.5316 1/A FBSC none
REM MP grid 3 3 4 Offset 0.000 0.000 0.000 No. kpts 14 Spacing 0.07
REM Total runtime: 7970.91 s
REM Overall efficiency: 93.25 %
REM
REM
REM
REM compiler GCC version 4.9.2
REM options -cpp -iprefix /lustre/shared/ucl/apps/gcc/4.9.2/bin/../lib/gcc/x86_64-unknown-linux-gnu/4.9.2/ -mtune=corei7 -march=x86-64 -g -Og
REM COMMAND_LINE
REM seed 1012670320 -1038161215 1830368558 -1371825806 1692676083 2125320197 -30051169 -962217819 101814509 264976187 -821945062 -1661031838
REM
REM S 3|1.8|5|6|7|30:31:32(qc=5)
REM O 2|1.5|12|13|15|20:21(qc=5)
REM Li 1|1.3|8|9|10|10U:20(qc=5)
REM Fe 3|2.2|2.0|1.0|8|9|10|40:41:32(qc=5)
REM 
CELL 1.54180    6.35555    6.35555    5.40585   53.99609   53.99609   60.00000
LATT -1
SFAC Li O  S  Fe 
Li     1  0.4304580000000  0.4304580000000 -0.2913740000000 1.0  -0.14
Li     1 -0.2662130000000 -0.2662130000000 -0.2013600000000 1.0  -0.07
O      2  0.1453590000000  0.1453590000000 -0.4360760000000 1.0   0.11
S      3  0.2280660000000 -0.1721470000000  0.3126440000000 1.0   0.08
S      3 -0.1721470000000 -0.3685630000000  0.3126440000000 1.0   0.08
S      3 -0.3685630000000  0.2280660000000  0.3126440000000 1.0   0.08
Fe     4 -0.0258590000000  0.2259720000000  0.3221730000000 1.0   1.93
Fe     4  0.2259720000000 -0.5222860000000  0.3221730000000 1.0   1.93
Fe     4 -0.5222860000000 -0.0258590000000  0.3221730000000 1.0   1.93
END
