TITL LFSO-Li2Fe4SO4-200911-232159-87af97 -0.0667 134.174275 -5.90869596E+003 14.6739 14.9070 11 (R3) n - 1
REM
REM Run started: Sat, 12 Sep 2020 01:23:49 +0100 in /lustre/scratch/uccabz1/launch_tmp/launcher_2020-09-11-22-21-57-570925
REM CASTEP 20.1 from code version af48c487+ pr-geom-scf-spinfix Tue Jun 2 15:39:59 2020 +0100
REM Functional Perdew Burke Ernzerhof Relativity Koelling-Harmon Dispersion off
REM Cut-off 340.0000 eV Grid scale 1.7500 Gmax 16.5316 1/A FBSC none
REM MP grid 4 4 4 Offset 0.000 0.000 0.000 No. kpts 12 Spacing 0.07
REM Total runtime: 7373.6 s
REM Overall efficiency: 95.2857 %
REM
REM
REM
REM compiler GCC version 4.9.2
REM options -cpp -iprefix /lustre/shared/ucl/apps/gcc/4.9.2/bin/../lib/gcc/x86_64-unknown-linux-gnu/4.9.2/ -mtune=corei7 -march=x86-64 -g -Og
REM COMMAND_LINE
REM seed -2020318814 556577487 -94763070 1562802482 -597033094 978162690 -1754128263 797458951 2130230566 692693830 -788973638 -1825423363
REM
REM S 3|1.8|5|6|7|30:31:32(qc=5)
REM O 2|1.5|12|13|15|20:21(qc=5)
REM Li 1|1.3|8|9|10|10U:20(qc=5)
REM Fe 3|2.2|2.0|1.0|8|9|10|40:41:32(qc=5)
REM 
CELL 1.54180    6.48237    6.48237    6.48237   47.21375   47.21375   47.21375
LATT -1
SFAC Li O  S  Fe 
Li     1 -0.4875740000000 -0.4875740000000 -0.4875740000000 1.0   0.07
Li     1  0.1505580000000  0.1505580000000  0.1505580000000 1.0  -0.04
O      2  0.5424560000000 -0.1078960000000  0.2451540000000 1.0   0.32
O      2 -0.1078960000000  0.2451540000000  0.5424560000000 1.0   0.32
O      2  0.2451540000000  0.5424560000000 -0.1078960000000 1.0   0.32
O      2  0.0284380000000  0.0284380000000  0.0284380000000 1.0   0.24
S      3  0.3845420000000  0.3845420000000  0.3845420000000 1.0   0.13
Fe     4  0.3312330000000 -0.0660530000000 -0.3479650000000 1.0   3.26
Fe     4 -0.0660530000000 -0.3479650000000  0.3312330000000 1.0   3.26
Fe     4 -0.3479650000000  0.3312330000000 -0.0660530000000 1.0   3.26
Fe     4 -0.1436620000000 -0.1436620000000 -0.1436620000000 1.0   3.54
END
