TITL LFSO-Li2FeSO-200912-045622-d07c15 -0.1068 168.882255 -4.00586434E+003 5.42694 5.99785 10 (P-1) n - 1
REM
REM Run started: Sat, 12 Sep 2020 19:08:08 +0100 in /lustre/scratch/uccabz1/launch_tmp/launcher_2020-09-12-03-56-20-095842
REM CASTEP 20.1 from code version af48c487+ pr-geom-scf-spinfix Tue Jun 2 15:39:59 2020 +0100
REM Functional Perdew Burke Ernzerhof Relativity Koelling-Harmon Dispersion off
REM Cut-off 340.0000 eV Grid scale 1.7500 Gmax 16.5316 1/A FBSC none
REM MP grid 6 7 2 Offset 0.000 0.000 0.000 No. kpts 42 Spacing 0.07
REM Total runtime: 69299.8 s
REM Overall efficiency: 97.9167 %
REM
REM
REM
REM compiler GCC version 4.9.2
REM options -cpp -iprefix /lustre/shared/ucl/apps/gcc/4.9.2/bin/../lib/gcc/x86_64-unknown-linux-gnu/4.9.2/ -mtune=corei7 -march=x86-64 -g -Og
REM COMMAND_LINE
REM seed -1834669780 -1596860162 -907699409 -928071133 -1463677401 -909134311 781377093 124398133 -2116671835 -1221842420 -31347398 1607252787
REM
REM S 3|1.8|5|6|7|30:31:32(qc=5)
REM O 2|1.5|12|13|15|20:21(qc=5)
REM Li 1|1.3|8|9|10|10U:20(qc=5)
REM Fe 3|2.2|2.0|1.0|8|9|10|40:41:32(qc=5)
REM 
CELL 1.54180    8.64573    6.79417   12.27261   53.60487  127.44346  162.81347
LATT -1
SFAC Li O  S  Fe 
Li     1  0.8065610000000  0.2857010000000 -0.0953290000000 1.0  -0.00
Li     1 -0.8065610000000 -0.2857010000000  0.0953290000000 1.0  -0.00
Li     1 -0.1290040000000  0.6286260000000  0.3721630000000 1.0  -0.13
Li     1  0.1290040000000 -0.6286260000000 -0.3721630000000 1.0  -0.13
O      2  0.6100110000000  0.2551270000000 -0.0373210000000 1.0   0.12
O      2 -0.6100110000000 -0.2551270000000  0.0373210000000 1.0   0.12
S      3 -0.0160660000000  0.4847540000000  0.3133740000000 1.0   0.06
S      3  0.0160660000000 -0.4847540000000 -0.3133740000000 1.0   0.06
Fe     4 -0.3200810000000 -0.4988050000000 -0.4256500000000 1.0   2.66
Fe     4  0.3200810000000  0.4988050000000  0.4256500000000 1.0   2.66
END
