TITL LFSO-Li4FeSO2-200910-073607-6f341e 0.0175 321.816959 -8.52734258E+003 9.15608 9.98840 24 (C2/m) n - 1
REM
REM Run started: Thu, 10 Sep 2020 18:14:53 +0100 in /lustre/scratch/uccabz1/launch_tmp/launcher_2020-09-10-06-36-04-165397
REM CASTEP 20.1 from code version af48c487+ pr-geom-scf-spinfix Tue Jun 2 15:39:59 2020 +0100
REM Functional Perdew Burke Ernzerhof Relativity Koelling-Harmon Dispersion off
REM Cut-off 340.0000 eV Grid scale 1.7500 Gmax 16.5316 1/A FBSC none
REM MP grid 4 2 2 Offset 0.000 0.000 0.000 No. kpts 6 Spacing 0.07
REM Total runtime: 39197.6 s
REM Overall efficiency: 87 %
REM
REM
REM
REM compiler GCC version 4.9.2
REM options -cpp -iprefix /lustre/shared/ucl/apps/gcc/4.9.2/bin/../lib/gcc/x86_64-unknown-linux-gnu/4.9.2/ -mtune=corei7 -march=x86-64 -g -Og
REM COMMAND_LINE
REM seed 441887794 -2124232080 1833478138 -1021379677 2112479879 219578985 644723054 1681333174 81178674 697321240 -302170769 -1046205438
REM
REM S 3|1.8|5|6|7|30:31:32(qc=5)
REM O 2|1.5|12|13|15|20:21(qc=5)
REM Li 1|1.3|8|9|10|10U:20(qc=5)
REM Fe 3|2.2|2.0|1.0|8|9|10|40:41:32(qc=5)
REM 
CELL 1.54180    3.78300   10.44709   10.44709  126.15366   96.78851   96.78851
LATT -1
SFAC Li O  S  Fe 
Li     1 -0.3315130000000 -0.5076660000000  0.2656700000000 1.0  -0.07
Li     1  0.3315130000000 -0.2656700000000  0.5076660000000 1.0  -0.07
Li     1  0.3315130000000  0.5076660000000 -0.2656700000000 1.0  -0.07
Li     1 -0.3315130000000  0.2656700000000 -0.5076660000000 1.0  -0.07
Li     1  0.0734150000000 -0.3029660000000  0.0445820000000 1.0  -0.06
Li     1 -0.0734150000000 -0.0445820000000  0.3029660000000 1.0  -0.06
Li     1 -0.0734150000000  0.3029660000000 -0.0445820000000 1.0  -0.06
Li     1  0.0734150000000  0.0445820000000 -0.3029660000000 1.0  -0.06
Li     1  0.4782290000000 -0.2134580000000 -0.0965520000000 1.0   0.01
Li     1 -0.4782290000000  0.0965520000000  0.2134580000000 1.0   0.01
Li     1 -0.4782290000000  0.2134580000000  0.0965520000000 1.0   0.01
Li     1  0.4782290000000 -0.0965520000000 -0.2134580000000 1.0   0.01
O      2  0.5139960000000 -0.3506870000000 -0.0392150000000 1.0   0.14
O      2 -0.5139960000000  0.0392150000000  0.3506870000000 1.0   0.14
O      2 -0.5139960000000  0.3506870000000  0.0392150000000 1.0   0.14
O      2  0.5139960000000 -0.0392150000000 -0.3506870000000 1.0   0.14
O      2  0.6357310000000  0.3321110000000  0.3321110000000 1.0   0.19
O      2 -0.6357310000000 -0.3321110000000 -0.3321110000000 1.0   0.19
S      3 -0.5000000000000 -0.2829680000000  0.2829680000000 1.0   0.04
S      3  0.5000000000000  0.2829680000000 -0.2829680000000 1.0   0.04
S      3  0.0000000000000  0.0000000000000  0.0000000000000 1.0   0.02
Fe     4  0.5000000000000 -0.5000000000000  0.0000000000000 1.0   2.70
Fe     4  0.5000000000000  0.0000000000000 -0.5000000000000 1.0   2.70
Fe     4  0.5000000000000  0.5000000000000 -0.5000000000000 1.0   3.18
END
