TITL LFSO-Li6FeS2O2-200920-220106-f2a5a9 0.0195 337.430577 -7.09379472E+003 8.00000 8.23489 22 (Fdd2) n - 1
REM
REM Run started: Mon, 21 Sep 2020 01:34:54 +0100 in /lustre/scratch/uccabz1/launch_tmp/launcher_2020-09-20-21-01-04-754750
REM CASTEP 20.1 from code version af48c487+ pr-geom-scf-spinfix Tue Jun 2 15:39:59 2020 +0100
REM Functional Perdew Burke Ernzerhof Relativity Koelling-Harmon Dispersion off
REM Cut-off 340.0000 eV Grid scale 1.7500 Gmax 16.5316 1/A FBSC none
REM MP grid 3 3 2 Offset 0.000 0.000 0.000 No. kpts 6 Spacing 0.07
REM Total runtime: 15651.1 s
REM Overall efficiency: 97.8571 %
REM
REM
REM
REM compiler GCC version 4.9.2
REM options -cpp -iprefix /lustre/shared/ucl/apps/gcc/4.9.2/bin/../lib/gcc/x86_64-unknown-linux-gnu/4.9.2/ -mtune=corei7 -march=x86-64 -g -Og
REM COMMAND_LINE
REM seed -679098062 -1123725776 -948073443 -1887798423 1188705282 -1473603815 1516772143 1272885371 188021784 1320554532 -2057185176 -1358574614
REM
REM S 3|1.8|5|6|7|30:31:32(qc=5)
REM O 2|1.5|12|13|15|20:21(qc=5)
REM Li 1|1.3|8|9|10|10U:20(qc=5)
REM Fe 3|2.2|2.0|1.0|8|9|10|40:41:32(qc=5)
REM 
CELL 1.54180    6.55523    6.55523    9.04526  109.45625  109.45625   94.63326
LATT -1
SFAC Li O  S  Fe 
Li     1 -0.3465060000000  0.5068720000000 -0.1933800000000 1.0  -0.02
Li     1 -0.2997480000000 -0.1531270000000  0.1933800000000 1.0  -0.02
Li     1 -0.2431280000000  0.4034940000000  0.3066200000000 1.0  -0.02
Li     1  0.0968730000000 -0.5497480000000 -0.3066200000000 1.0  -0.02
Li     1  0.4109320000000  0.0563800000000  0.1385340000000 1.0  -0.03
Li     1 -0.0821540000000  0.2723980000000 -0.1385340000000 1.0  -0.03
Li     1  0.3063800000000  0.1609320000000 -0.3614660000000 1.0  -0.03
Li     1 -0.4776020000000 -0.3321540000000  0.3614660000000 1.0  -0.03
Li     1  0.1534060000000  0.3490250000000  0.2419450000000 1.0   0.02
Li     1  0.1070800000000 -0.0885390000000 -0.2419450000000 1.0   0.02
Li     1  0.5990250000000 -0.0965940000000 -0.2580550000000 1.0   0.02
Li     1  0.1614610000000 -0.1429200000000  0.2580550000000 1.0   0.02
O      2  0.4705370000000 -0.0832390000000  0.3009270000000 1.0   0.19
O      2 -0.3841660000000  0.1696090000000 -0.3009270000000 1.0   0.19
O      2  0.1667610000000  0.2205370000000 -0.1990730000000 1.0   0.19
O      2 -0.5803910000000  0.3658340000000  0.1990730000000 1.0   0.19
S      3 -0.2266530000000 -0.3899130000000 -0.3909540000000 1.0   0.05
S      3  0.0010420000000  0.1643010000000  0.3909540000000 1.0   0.05
S      3 -0.1399130000000 -0.4766530000000  0.1090460000000 1.0   0.05
S      3  0.4143010000000 -0.2489580000000 -0.1090460000000 1.0   0.05
Fe     4  0.4080530000000  0.4080530000000  0.0000000000000 1.0   3.58
Fe     4 -0.3419470000000  0.1580530000000  0.5000000000000 1.0   3.58
END
