TITL LFSO-Li6FeS3O-200910-000048-6547af 0.0313 391.638146 -6.82368245E+003 7.98867 8.18423 22 (P3) n - 1
REM
REM Run started: Thu, 10 Sep 2020 08:34:10 +0100 in /lustre/scratch/uccabz1/launch_tmp/launcher_2020-09-09-23-00-46-855784
REM CASTEP 20.1 from code version af48c487+ pr-geom-scf-spinfix Tue Jun 2 15:39:59 2020 +0100
REM Functional Perdew Burke Ernzerhof Relativity Koelling-Harmon Dispersion off
REM Cut-off 340.0000 eV Grid scale 1.7500 Gmax 16.5316 1/A FBSC none
REM MP grid 4 2 2 Offset 0.000 0.000 0.000 No. kpts 8 Spacing 0.07
REM Total runtime: 31014 s
REM Overall efficiency: 94.75 %
REM
REM
REM
REM compiler GCC version 4.9.2
REM options -cpp -iprefix /lustre/shared/ucl/apps/gcc/4.9.2/bin/../lib/gcc/x86_64-unknown-linux-gnu/4.9.2/ -mtune=corei7 -march=x86-64 -g -Og
REM COMMAND_LINE
REM seed 312056489 759950211 -674685027 -1631698317 -1090185061 -612462992 -636333711 -1660154888 2127633331 518811868 -179046968 -532695568
REM
REM S 3|1.8|5|6|7|30:31:32(qc=5)
REM O 2|1.5|12|13|15|20:21(qc=5)
REM Li 1|1.3|8|9|10|10U:20(qc=5)
REM Fe 3|2.2|2.0|1.0|8|9|10|40:41:32(qc=5)
REM 
CELL 1.54180    4.28114   10.27773   10.27773  120.00000   90.00000   90.00000
LATT -1
SFAC Li O  S  Fe 
Li     1 -0.1445770000000  0.3645690000000 -0.0528500000000 1.0  -0.01
Li     1 -0.1445770000000 -0.4174190000000 -0.3645690000000 1.0  -0.01
Li     1 -0.1445770000000  0.0528500000000  0.4174190000000 1.0  -0.01
Li     1 -0.5255600000000  0.0292360000000 -0.3175270000000 1.0   0.01
Li     1 -0.5255600000000 -0.3467630000000 -0.0292360000000 1.0   0.01
Li     1 -0.5255600000000  0.3175270000000  0.3467630000000 1.0   0.01
Li     1 -0.0166420000000 -0.2837040000000  0.1872910000000 1.0  -0.04
Li     1 -0.0166420000000  0.4709940000000  0.2837040000000 1.0  -0.04
Li     1 -0.0166420000000 -0.1872910000000 -0.4709940000000 1.0  -0.04
Li     1 -0.1837280000000 -0.0981130000000 -0.1784460000000 1.0   0.02
Li     1 -0.1837280000000 -0.0803330000000  0.0981130000000 1.0   0.02
Li     1 -0.1837280000000  0.1784460000000  0.0803330000000 1.0   0.02
O      2  0.0128980000000 -0.3333330000000  0.3333330000000 1.0   0.26
O      2 -0.0576000000000  0.0000000000000 -0.0000000000000 1.0   0.03
S      3  0.4969150000000 -0.1489670000000  0.2418440000000 1.0   0.10
S      3  0.4969150000000  0.3908110000000  0.1489670000000 1.0   0.10
S      3  0.4969150000000 -0.2418440000000 -0.3908110000000 1.0   0.10
S      3 -0.0282530000000 -0.4413760000000 -0.1216480000000 1.0   0.13
S      3 -0.0282530000000  0.3197280000000  0.4413760000000 1.0   0.13
S      3 -0.0282530000000  0.1216480000000 -0.3197280000000 1.0   0.13
Fe     4  0.4785600000000 -0.3333330000000  0.3333330000000 1.0   3.69
Fe     4  0.0196700000000  0.3333330000000 -0.3333330000000 1.0   3.35
END
