TITL LFSO-Li4Fe2SO4-200910-132444-59cab3 -0.0463 278.685134 -9.16579365E+003 15.8804 16.1046 22 (Cc) n - 1
REM
REM Run started: Fri, 11 Sep 2020 09:26:42 +0100 in /lustre/scratch/uccabz1/launch_tmp/launcher_2020-09-10-12-24-43-052258
REM CASTEP 20.1 from code version af48c487+ pr-geom-scf-spinfix Tue Jun 2 15:39:59 2020 +0100
REM Functional Perdew Burke Ernzerhof Relativity Koelling-Harmon Dispersion off
REM Cut-off 340.0000 eV Grid scale 1.7500 Gmax 16.5316 1/A FBSC none
REM MP grid 4 3 4 Offset 0.000 0.000 0.000 No. kpts 24 Spacing 0.07
REM Total runtime: 72577.3 s
REM Overall efficiency: 81.5 %
REM
REM
REM
REM compiler GCC version 4.9.2
REM options -cpp -iprefix /lustre/shared/ucl/apps/gcc/4.9.2/bin/../lib/gcc/x86_64-unknown-linux-gnu/4.9.2/ -mtune=corei7 -march=x86-64 -g -Og
REM COMMAND_LINE
REM seed -153322019 -1399514798 -443478823 489002135 1203619172 1032512169 -529500689 -702492213 1602597402 1934517406 1597375494 961098841
REM
REM S 3|1.8|5|6|7|30:31:32(qc=5)
REM O 2|1.5|12|13|15|20:21(qc=5)
REM Li 1|1.3|8|9|10|10U:20(qc=5)
REM Fe 3|2.2|2.0|1.0|8|9|10|40:41:32(qc=5)
REM 
CELL 1.54180    7.95141    8.79059    9.23915  118.40656  140.03703   90.00000
LATT -1
SFAC Li O  S  Fe 
Li     1 -0.6016520000000 -0.5424570000000  0.0324400000000 1.0   0.03
Li     1 -0.1016520000000  0.5748980000000  0.0324400000000 1.0   0.03
Li     1  0.0574150000000 -0.2905780000000  0.5269670000000 1.0   0.05
Li     1  0.5574150000000 -0.1824550000000  0.5269670000000 1.0   0.05
Li     1  0.4138350000000 -0.4600280000000 -0.2243990000000 1.0  -0.02
Li     1 -0.0861650000000  0.2356290000000 -0.2243990000000 1.0  -0.02
Li     1  0.2827690000000 -0.1860050000000  0.0556990000000 1.0  -0.02
Li     1 -0.2172310000000  0.2417040000000  0.0556990000000 1.0  -0.02
O      2 -0.1361580000000  0.1524310000000 -0.4948660000000 1.0   0.24
O      2  0.3638420000000  0.3527030000000 -0.4948660000000 1.0   0.24
O      2 -0.2749710000000 -0.6070140000000  0.2287770000000 1.0   0.26
O      2  0.2250290000000 -0.1642090000000  0.2287770000000 1.0   0.26
O      2  0.2102950000000 -0.4388290000000 -0.1822770000000 1.0   0.26
O      2 -0.2897050000000  0.2565520000000 -0.1822770000000 1.0   0.26
O      2 -0.1287850000000 -0.2723990000000  0.2466260000000 1.0   0.39
O      2  0.3712150000000 -0.4809750000000  0.2466260000000 1.0   0.39
S      3 -0.3227760000000 -0.0979680000000 -0.0672040000000 1.0   0.29
S      3  0.1772240000000  0.0307640000000 -0.0672040000000 1.0   0.29
Fe     4 -0.2190830000000 -0.6879570000000 -0.6024440000000 1.0   2.82
Fe     4 -0.7190830000000  0.0855130000000 -0.6024440000000 1.0   2.82
Fe     4 -0.0953780000000 -0.0327000000000  0.3388550000000 1.0   3.64
Fe     4  0.4046220000000  0.3715550000000  0.3388550000000 1.0   3.64
END
