TITL LFSO-Li4Fe3SO4-200928-015910-b794ca 0.0386 173.894315 -5.44468978E+003 10.2131 10.7866 12 (P3m1) n - 1
REM
REM Run started: Mon, 28 Sep 2020 02:55:38 +0100 in /scratch/scratch/uccabz1/launch_tmp/launcher_2020-09-28-00-59-08-159411
REM CASTEP 19.11| from code version Version unavailable
REM Functional Perdew Burke Ernzerhof Relativity Koelling-Harmon Dispersion off
REM Cut-off 340.0000 eV Grid scale 1.7500 Gmax 16.5316 1/A FBSC none
REM MP grid 3 3 3 Offset 0.000 0.000 0.000 No. kpts 8 Spacing 0.07
REM Total runtime: 4030.9 s
REM Overall efficiency: 92.5 %
REM
REM
REM
REM compiler GCC version 4.9.2
REM options -cpp -iprefix /scratch/UCL/applications/gcc/4.9.2/bin/../lib/gcc/x86_64-unknown-linux-gnu/4.9.2/ -mtune=corei7 -march=x86-64 -g -O2
REM COMMAND_LINE
REM seed 2039033624 -687545664 471460983 -344804388 756809057 -1841629635 1471912426 782494997 1055338268 -156013234 841973905 -2106855431
REM
REM S 3|1.8|5|6|7|30:31:32(qc=5)
REM O 2|1.5|12|13|15|20:21(qc=5)
REM Li 1|1.3|8|9|10|10U:20(qc=5)
REM Fe 3|2.2|2.0|1.0|8|9|10|40:41:32(qc=5)
REM 
CELL 1.54180    5.72533    5.92212    5.92212  120.00000   90.00000   90.00000
LATT -1
SFAC Li O  S  Fe 
Li     1  0.0866790000000 -0.5017170000000  0.5017060000000 1.0  -0.03
Li     1  0.0866790000000  0.0034230000000  0.5017170000000 1.0  -0.03
Li     1  0.0866790000000 -0.5017060000000 -0.0034230000000 1.0  -0.03
Li     1  0.0202060000000  0.0000000000000 -0.0000000000000 1.0  -0.06
O      2  0.2170470000000  0.1573270000000 -0.1572300000000 1.0   0.29
O      2  0.2170470000000 -0.3145570000000 -0.1573270000000 1.0   0.29
O      2  0.2170470000000  0.1572300000000  0.3145570000000 1.0   0.29
O      2 -0.0623940000000 -0.3333330000000  0.3333330000000 1.0  -0.02
S      3 -0.3642340000000 -0.3333330000000  0.3333330000000 1.0  -0.04
Fe     4  0.4317800000000 -0.1389490000000  0.1388020000000 1.0   3.19
Fe     4  0.4317800000000  0.2777510000000  0.1389490000000 1.0   3.19
Fe     4  0.4317800000000 -0.1388020000000 -0.2777510000000 1.0   3.19
END
