TITL LFSO-Li4Fe3S3O2-200926-161953-de9fa4 -0.0096 198.021595 -5.17095173E+003 6.62737 8.52364 12 (C222) n - 1
REM
REM Run started: Sat, 26 Sep 2020 19:22:03 +0100 in /lustre/scratch/uccabz1/launch_tmp/launcher_2020-09-26-15-19-51-830761
REM CASTEP 20.1 from code version af48c487+ pr-geom-scf-spinfix Tue Jun 2 15:39:59 2020 +0100
REM Functional Perdew Burke Ernzerhof Relativity Koelling-Harmon Dispersion off
REM Cut-off 340.0000 eV Grid scale 1.7500 Gmax 16.5316 1/A FBSC none
REM MP grid 4 3 3 Offset 0.000 0.000 0.000 No. kpts 8 Spacing 0.07
REM Total runtime: 10994.2 s
REM Overall efficiency: 95.3333 %
REM
REM
REM
REM compiler GCC version 4.9.2
REM options -cpp -iprefix /lustre/shared/ucl/apps/gcc/4.9.2/bin/../lib/gcc/x86_64-unknown-linux-gnu/4.9.2/ -mtune=corei7 -march=x86-64 -g -Og
REM COMMAND_LINE
REM seed -852395031 1626813252 1489986196 -1549351081 901257981 1762133653 -901577641 181621967 -945735313 -1169897521 -368634966 -1225173540
REM
REM S 3|1.8|5|6|7|30:31:32(qc=5)
REM O 2|1.5|12|13|15|20:21(qc=5)
REM Li 1|1.3|8|9|10|10U:20(qc=5)
REM Fe 3|2.2|2.0|1.0|8|9|10|40:41:32(qc=5)
REM 
CELL 1.54180    4.13125    7.06428    7.64951  117.49991   90.00000   90.00000
LATT -1
SFAC Li O  S  Fe 
Li     1 -0.4745230000000 -0.4053900000000 -0.3081520000000 1.0  -0.01
Li     1 -0.4745230000000  0.4053900000000  0.3081520000000 1.0  -0.01
Li     1  0.4745230000000 -0.0972380000000  0.3081520000000 1.0  -0.01
Li     1  0.4745230000000  0.0972380000000 -0.3081520000000 1.0  -0.01
O      2  0.2198170000000 -0.5000000000000 -0.5000000000000 1.0  -0.38
O      2 -0.2198170000000  0.0000000000000  0.5000000000000 1.0  -0.38
S      3  0.0000000000000  0.1336710000000 -0.7326580000000 1.0  -0.00
S      3  0.0000000000000 -0.1336710000000  0.7326580000000 1.0  -0.00
S      3 -0.5000000000000 -0.5000000000000  0.0000000000000 1.0   0.13
Fe     4  0.0000000000000  0.1722090000000  0.0000000000000 1.0   2.54
Fe     4  0.0000000000000 -0.1722090000000  0.0000000000000 1.0   2.54
Fe     4  0.0000000000000 -0.5000000000000  0.0000000000000 1.0   2.22
END
