TITL LFSO-Li3Fe3S5O-200928-152723-fc0452 -0.0016 186.212632 -5.14524651E+003 0.135269E-01 1.38557 12 (Pmm2) n - 1
REM
REM Run started: Mon, 28 Sep 2020 19:17:03 +0100 in /lustre/scratch/uccabz1/launch_tmp/launcher_2020-09-28-14-27-21-526704
REM CASTEP 20.1 from code version af48c487+ pr-geom-scf-spinfix Tue Jun 2 15:39:59 2020 +0100
REM Functional Perdew Burke Ernzerhof Relativity Koelling-Harmon Dispersion off
REM Cut-off 340.0000 eV Grid scale 1.7500 Gmax 16.5316 1/A FBSC none
REM MP grid 5 4 2 Offset 0.000 0.000 0.000 No. kpts 6 Spacing 0.07
REM Total runtime: 14853.9 s
REM Overall efficiency: 96.3333 %
REM
REM
REM
REM compiler GCC version 4.9.2
REM options -cpp -iprefix /lustre/shared/ucl/apps/gcc/4.9.2/bin/../lib/gcc/x86_64-unknown-linux-gnu/4.9.2/ -mtune=corei7 -march=x86-64 -g -Og
REM COMMAND_LINE
REM seed -714617608 1634293093 1250583311 -1730993048 546994304 1335956971 -117151508 -2108828493 1042135528 491048785 -806390926 -2068201286
REM
REM S 3|1.8|5|6|7|30:31:32(qc=5)
REM O 2|1.5|12|13|15|20:21(qc=5)
REM Li 1|1.3|8|9|10|10U:20(qc=5)
REM Fe 3|2.2|2.0|1.0|8|9|10|40:41:32(qc=5)
REM 
CELL 1.54180    3.29869    4.66652   12.09691   90.00000   90.00000   90.00000
LATT -1
SFAC Li O  S  Fe 
Li     1  0.0000000000000  0.0000000000000 -0.1144250000000 1.0   0.01
Li     1  0.0000000000000  0.5000000000000  0.2404150000000 1.0  -0.02
Li     1 -0.5000000000000  0.0000000000000  0.1638320000000 1.0   0.00
O      2 -0.5000000000000  0.0000000000000  0.3257680000000 1.0  -0.07
S      3  0.0000000000000 -0.2796220000000  0.0608210000000 1.0  -0.00
S      3  0.0000000000000  0.2796220000000  0.0608210000000 1.0  -0.00
S      3  0.0000000000000  0.5000000000000  0.4322420000000 1.0  -0.01
S      3  0.5000000000000  0.0000000000000 -0.2609510000000 1.0   0.06
S      3  0.0000000000000  0.5000000000000 -0.3243030000000 1.0  -0.03
Fe     4  0.0000000000000  0.0000000000000  0.3959030000000 1.0   0.03
Fe     4 -0.5000000000000 -0.5000000000000 -0.4474210000000 1.0  -0.08
Fe     4  0.0000000000000  0.0000000000000 -0.3802650000000 1.0   0.13
END
