TITL LFSO-Li2Fe2SO3-200913-085358-9a6937 -0.0420 476.652733 -1.12297368E+004 8.61398 17.0421 24 (Pmm2) n - 1
REM
REM Run started: Sun, 13 Sep 2020 16:19:19 +0100 in /lustre/scratch/uccabz1/launch_tmp/launcher_2020-09-13-13-43-13-836124
REM CASTEP 20.1 from code version af48c487+ pr-geom-scf-spinfix Tue Jun 2 15:39:59 2020 +0100
REM Functional Perdew Burke Ernzerhof Relativity Koelling-Harmon Dispersion off
REM Cut-off 340.0000 eV Grid scale 1.7500 Gmax 16.5316 1/A FBSC none
REM MP grid 2 3 2 Offset 0.000 0.000 0.000 No. kpts 2 Spacing 0.07
REM Total runtime: 29487.7 s
REM Overall efficiency: 84.8182 %
REM
REM
REM
REM compiler GCC version 4.9.2
REM options -cpp -iprefix /lustre/shared/ucl/apps/gcc/4.9.2/bin/../lib/gcc/x86_64-unknown-linux-gnu/4.9.2/ -mtune=corei7 -march=x86-64 -g -Og
REM COMMAND_LINE
REM seed 168186510 -1981112038 -879540176 -230652859 -1090281565 2140082623 -1278918816 1047424180 -258650034 329601327 -750166818 394664626
REM
REM S 3|1.8|5|6|7|30:31:32(qc=5)
REM O 2|1.5|12|13|15|20:21(qc=5)
REM Li 1|1.3|8|9|10|10U:20(qc=5)
REM Fe 3|2.2|2.0|1.0|8|9|10|40:41:32(qc=5)
REM 
CELL 1.54180    7.90638    6.25628    9.63626   90.00000   90.00000   90.00000
LATT -1
SFAC Li O  S  Fe 
Li     1 -0.3293830000000  0.2408560000000  0.1293320000000 1.0  -0.01
Li     1  0.3293830000000  0.2408560000000 -0.1293320000000 1.0  -0.01
Li     1  0.3293830000000  0.2408560000000  0.1293320000000 1.0  -0.01
Li     1 -0.3293830000000  0.2408560000000 -0.1293320000000 1.0  -0.01
Li     1  0.0000000000000  0.1519220000000 -0.1807050000000 1.0   0.04
Li     1  0.0000000000000  0.1519220000000  0.1807050000000 1.0   0.04
O      2  0.2013040000000 -0.0022520000000  0.1632810000000 1.0   0.32
O      2 -0.2013040000000 -0.0022520000000 -0.1632810000000 1.0   0.32
O      2 -0.2013040000000 -0.0022520000000  0.1632810000000 1.0   0.32
O      2  0.2013040000000 -0.0022520000000 -0.1632810000000 1.0   0.32
O      2  0.1697390000000  0.4667160000000  0.1896510000000 1.0  -0.04
O      2 -0.1697390000000  0.4667160000000 -0.1896510000000 1.0  -0.04
O      2 -0.1697390000000  0.4667160000000  0.1896510000000 1.0  -0.04
O      2  0.1697390000000  0.4667160000000 -0.1896510000000 1.0  -0.04
O      2  0.5000000000000  0.2765980000000  0.0000000000000 1.0   0.31
S      3 -0.1866610000000  0.5029370000000  0.5000000000000 1.0   0.06
S      3  0.1866610000000  0.5029370000000 -0.5000000000000 1.0   0.06
S      3  0.0000000000000  0.2496200000000  0.5000000000000 1.0  -0.01
Fe     4  0.1544700000000 -0.2621430000000  0.1303270000000 1.0   2.71
Fe     4 -0.1544700000000 -0.2621430000000 -0.1303270000000 1.0   2.71
Fe     4 -0.1544700000000 -0.2621430000000  0.1303270000000 1.0   2.71
Fe     4  0.1544700000000 -0.2621430000000 -0.1303270000000 1.0   2.71
Fe     4  0.0000000000000 -0.4877740000000 -0.3149430000000 1.0  -1.90
Fe     4  0.0000000000000 -0.4877740000000  0.3149430000000 1.0  -1.90
END
