TITL LFSO-Li6FeS3O-200910-030628-813f92 -0.0110 348.863633 -6.82568618E+003 8.00000 8.11639 22 (P42) n - 1
REM
REM Run started: Thu, 10 Sep 2020 06:35:58 +0100 in /lustre/scratch/uccabz1/launch_tmp/launcher_2020-09-10-02-06-26-557847
REM CASTEP 20.1 from code version af48c487+ pr-geom-scf-spinfix Tue Jun 2 15:39:59 2020 +0100
REM Functional Perdew Burke Ernzerhof Relativity Koelling-Harmon Dispersion off
REM Cut-off 340.0000 eV Grid scale 1.7500 Gmax 16.5316 1/A FBSC none
REM MP grid 3 3 3 Offset 0.000 0.000 0.000 No. kpts 6 Spacing 0.07
REM Total runtime: 13677.4 s
REM Overall efficiency: 93.9 %
REM
REM
REM
REM compiler GCC version 4.9.2
REM options -cpp -iprefix /lustre/shared/ucl/apps/gcc/4.9.2/bin/../lib/gcc/x86_64-unknown-linux-gnu/4.9.2/ -mtune=corei7 -march=x86-64 -g -Og
REM COMMAND_LINE
REM seed 1905994344 1083816936 -929636070 1174142641 2056983353 -721278052 1322777045 1526377767 1932426959 -214046745 -192507230 384076830
REM
REM S 3|1.8|5|6|7|30:31:32(qc=5)
REM O 2|1.5|12|13|15|20:21(qc=5)
REM Li 1|1.3|8|9|10|10U:20(qc=5)
REM Fe 3|2.2|2.0|1.0|8|9|10|40:41:32(qc=5)
REM 
CELL 1.54180    6.99161    6.99161    7.13677   90.00000   90.00000   90.00000
LATT -1
SFAC Li O  S  Fe 
Li     1  0.4601630000000  0.1889820000000 -0.0410860000000 1.0  -0.00
Li     1 -0.4601630000000 -0.1889820000000 -0.0410860000000 1.0  -0.00
Li     1  0.1889820000000 -0.4601630000000  0.4589140000000 1.0  -0.00
Li     1 -0.1889820000000  0.4601630000000  0.4589140000000 1.0  -0.00
Li     1  0.0390650000000  0.2200770000000 -0.2608410000000 1.0   0.01
Li     1 -0.0390650000000 -0.2200770000000 -0.2608410000000 1.0   0.01
Li     1  0.2200770000000 -0.0390650000000  0.2391590000000 1.0   0.01
Li     1 -0.2200770000000  0.0390650000000  0.2391590000000 1.0   0.01
Li     1  0.2814810000000 -0.4358410000000 -0.1642310000000 1.0  -0.04
Li     1 -0.2814810000000  0.4358410000000 -0.1642310000000 1.0  -0.04
Li     1 -0.4358410000000 -0.2814810000000  0.3357690000000 1.0  -0.04
Li     1  0.4358410000000  0.2814810000000  0.3357690000000 1.0  -0.04
O      2 -0.0000000000000  0.5000000000000 -0.1709960000000 1.0   0.17
O      2  0.5000000000000  0.0000000000000  0.3290040000000 1.0   0.17
S      3  0.2575200000000 -0.0500610000000 -0.1827410000000 1.0   0.12
S      3 -0.2575200000000  0.0500610000000 -0.1827410000000 1.0   0.12
S      3 -0.0500610000000 -0.2575200000000  0.3172590000000 1.0   0.12
S      3  0.0500610000000  0.2575200000000  0.3172590000000 1.0   0.12
S      3 -0.5000000000000  0.5000000000000  0.0824230000000 1.0   0.05
S      3 -0.5000000000000  0.5000000000000 -0.4175770000000 1.0   0.05
Fe     4  0.0000000000000  0.5000000000000  0.0940060000000 1.0   3.59
Fe     4  0.5000000000000  0.0000000000000 -0.4059940000000 1.0   3.59
END
