TITL LFSO-Li4Fe2S3O-200911-035135-2f7acc 0.0591 142.898168 -3.87266967E+003 6.65683 6.78949 10 (F222) n - 1
REM
REM Run started: Fri, 11 Sep 2020 05:01:08 +0100 in /lustre/scratch/uccabz1/launch_tmp/launcher_2020-09-11-02-51-33-933432
REM CASTEP 20.1 from code version af48c487+ pr-geom-scf-spinfix Tue Jun 2 15:39:59 2020 +0100
REM Functional Perdew Burke Ernzerhof Relativity Koelling-Harmon Dispersion off
REM Cut-off 340.0000 eV Grid scale 1.7500 Gmax 16.5316 1/A FBSC none
REM MP grid 4 4 3 Offset 0.000 0.000 0.000 No. kpts 16 Spacing 0.07
REM Total runtime: 4221.83 s
REM Overall efficiency: 93 %
REM
REM
REM
REM compiler GCC version 4.9.2
REM options -cpp -iprefix /lustre/shared/ucl/apps/gcc/4.9.2/bin/../lib/gcc/x86_64-unknown-linux-gnu/4.9.2/ -mtune=corei7 -march=x86-64 -g -Og
REM COMMAND_LINE
REM seed 1679708809 -606781709 -1534849009 -1231937416 -1122683645 -124056889 -1888441959 2057961835 278368855 1508328090 1896581327 359885048
REM
REM S 3|1.8|5|6|7|30:31:32(qc=5)
REM O 2|1.5|12|13|15|20:21(qc=5)
REM Li 1|1.3|8|9|10|10U:20(qc=5)
REM Fe 3|2.2|2.0|1.0|8|9|10|40:41:32(qc=5)
REM 
CELL 1.54180    4.81823    4.81823    7.02163  109.69813  109.69813   91.00773
LATT -1
SFAC Li O  S  Fe 
Li     1 -0.3650750000000  0.3273420000000  0.1691230000000 1.0  -0.04
Li     1 -0.4658030000000 -0.1582190000000  0.1691230000000 1.0  -0.04
Li     1  0.1582190000000  0.4658030000000 -0.1691230000000 1.0  -0.04
Li     1 -0.3273420000000  0.3650750000000 -0.1691230000000 1.0  -0.04
O      2  0.0000000000000  0.0000000000000  0.0000000000000 1.0   0.36
S      3  0.3966540000000 -0.1033460000000 -0.2066920000000 1.0   0.04
S      3  0.1033460000000 -0.3966540000000  0.2066920000000 1.0   0.04
S      3 -0.2500000000000  0.2500000000000  0.5000000000000 1.0   0.11
Fe     4  0.1491020000000  0.1491020000000  0.2982030000000 1.0   3.13
Fe     4 -0.1491020000000 -0.1491020000000 -0.2982030000000 1.0   3.13
END
