TITL LFSO-LiFe3S2O3-200909-184442-0a6518 -0.0336 273.407437 -9.42290802E+003 -17.6127 18.1585 18 (Ccc2) n - 1
REM
REM Run started: Wed, 09 Sep 2020 23:25:27 +0100 in /lustre/scratch/uccabz1/launch_tmp/launcher_2020-09-09-17-44-40-469601
REM CASTEP 20.1 from code version af48c487+ pr-geom-scf-spinfix Tue Jun 2 15:39:59 2020 +0100
REM Functional Perdew Burke Ernzerhof Relativity Koelling-Harmon Dispersion off
REM Cut-off 340.0000 eV Grid scale 1.7500 Gmax 16.5316 1/A FBSC none
REM MP grid 3 3 2 Offset 0.000 0.000 0.000 No. kpts 4 Spacing 0.07
REM Total runtime: 19740.4 s
REM Overall efficiency: 96.8571 %
REM
REM
REM
REM compiler GCC version 4.9.2
REM options -cpp -iprefix /lustre/shared/ucl/apps/gcc/4.9.2/bin/../lib/gcc/x86_64-unknown-linux-gnu/4.9.2/ -mtune=corei7 -march=x86-64 -g -Og
REM COMMAND_LINE
REM seed 925189763 -1800546054 -498104799 1153094206 1628406098 739917888 -1712955707 326135654 -1277021155 -532401145 894270343 -46733350
REM
REM S 3|1.8|5|6|7|30:31:32(qc=5)
REM O 2|1.5|12|13|15|20:21(qc=5)
REM Li 1|1.3|8|9|10|10U:20(qc=5)
REM Fe 3|2.2|2.0|1.0|8|9|10|40:41:32(qc=5)
REM 
CELL 1.54180    5.70700    6.08946    8.90554   90.00000   90.00000  117.94326
LATT -1
SFAC Li O  S  Fe 
Li     1  0.0000000000000  0.5000000000000 -0.1146620000000 1.0   0.05
Li     1 -0.5000000000000 -0.5000000000000  0.3853380000000 1.0   0.05
O      2  0.2705970000000 -0.3606480000000  0.0386220000000 1.0  -0.30
O      2 -0.2705970000000  0.3606480000000  0.0386220000000 1.0  -0.30
O      2 -0.6312450000000 -0.3606480000000 -0.4613780000000 1.0  -0.30
O      2  0.6312450000000  0.3606480000000 -0.4613780000000 1.0  -0.30
O      2  0.0000000000000 -0.5000000000000  0.3088800000000 1.0  -0.24
O      2  0.5000000000000  0.5000000000000 -0.1911200000000 1.0  -0.24
S      3 -0.0732560000000  0.1797820000000 -0.3137950000000 1.0   0.01
S      3  0.0732560000000 -0.1797820000000 -0.3137950000000 1.0   0.01
S      3  0.2530370000000  0.1797820000000  0.1862050000000 1.0   0.01
S      3 -0.2530370000000 -0.1797820000000  0.1862050000000 1.0   0.01
Fe     4  0.1079060000000 -0.2379120000000  0.1717930000000 1.0  -2.73
Fe     4 -0.1079060000000  0.2379120000000  0.1717930000000 1.0  -2.73
Fe     4 -0.3458180000000 -0.2379120000000 -0.3282070000000 1.0  -2.73
Fe     4  0.3458180000000  0.2379120000000 -0.3282070000000 1.0  -2.73
Fe     4  0.0000000000000  0.5000000000000 -0.4696030000000 1.0  -2.56
Fe     4  0.5000000000000  0.5000000000000  0.0303970000000 1.0  -2.56
END
