TITL LFSO-Li4Fe2S4O-200910-175306-2d6c91 -0.0469 463.361282 -8.35863897E+003 11.3737 11.9498 22 (P42) n - 1
REM
REM Run started: Thu, 10 Sep 2020 23:03:41 +0100 in /lustre/scratch/uccabz1/launch_tmp/launcher_2020-09-10-16-53-05-273512
REM CASTEP 20.1 from code version af48c487+ pr-geom-scf-spinfix Tue Jun 2 15:39:59 2020 +0100
REM Functional Perdew Burke Ernzerhof Relativity Koelling-Harmon Dispersion off
REM Cut-off 340.0000 eV Grid scale 1.7500 Gmax 16.5316 1/A FBSC none
REM MP grid 2 2 3 Offset 0.000 0.000 0.000 No. kpts 2 Spacing 0.07
REM Total runtime: 20124.4 s
REM Overall efficiency: 82.8182 %
REM
REM
REM
REM compiler GCC version 4.9.2
REM options -cpp -iprefix /lustre/shared/ucl/apps/gcc/4.9.2/bin/../lib/gcc/x86_64-unknown-linux-gnu/4.9.2/ -mtune=corei7 -march=x86-64 -g -Og
REM COMMAND_LINE
REM seed 1350504199 -1451062078 1530295625 274212088 504252123 -1710205417 666300777 -136780863 -1034233170 1221905142 743894390 1984592425
REM
REM S 3|1.8|5|6|7|30:31:32(qc=5)
REM O 2|1.5|12|13|15|20:21(qc=5)
REM Li 1|1.3|8|9|10|10U:20(qc=5)
REM Fe 3|2.2|2.0|1.0|8|9|10|40:41:32(qc=5)
REM 
CELL 1.54180    8.71921    8.71921    6.09489   90.00000   90.00000   90.00000
LATT -1
SFAC Li O  S  Fe 
Li     1  0.2919570000000  0.0937180000000 -0.1405670000000 1.0   0.00
Li     1 -0.2919570000000 -0.0937180000000 -0.1405670000000 1.0   0.00
Li     1  0.0937180000000 -0.2919570000000  0.3594330000000 1.0   0.00
Li     1 -0.0937180000000  0.2919570000000  0.3594330000000 1.0   0.00
Li     1  0.3764720000000  0.4700190000000 -0.1720810000000 1.0  -0.02
Li     1 -0.3764720000000 -0.4700190000000 -0.1720810000000 1.0  -0.02
Li     1  0.4700190000000 -0.3764720000000  0.3279190000000 1.0  -0.02
Li     1 -0.4700190000000  0.3764720000000  0.3279190000000 1.0  -0.02
O      2  0.5000000000000 -0.5000000000000  0.0771400000000 1.0   0.25
O      2  0.5000000000000 -0.5000000000000 -0.4228600000000 1.0   0.25
S      3 -0.2391440000000  0.1232790000000 -0.3908310000000 1.0   0.08
S      3  0.2391440000000 -0.1232790000000 -0.3908310000000 1.0   0.08
S      3  0.1232790000000  0.2391440000000  0.1091690000000 1.0   0.08
S      3 -0.1232790000000 -0.2391440000000  0.1091690000000 1.0   0.08
S      3  0.1242150000000  0.2402280000000 -0.3881520000000 1.0   0.07
S      3 -0.1242150000000 -0.2402280000000 -0.3881520000000 1.0   0.07
S      3  0.2402280000000 -0.1242150000000  0.1118480000000 1.0   0.07
S      3 -0.2402280000000  0.1242150000000  0.1118480000000 1.0   0.07
Fe     4 -0.1368060000000 -0.0445400000000  0.3597730000000 1.0   2.58
Fe     4  0.1368060000000  0.0445400000000  0.3597730000000 1.0   2.58
Fe     4 -0.0445400000000  0.1368060000000 -0.1402270000000 1.0   2.58
Fe     4  0.0445400000000 -0.1368060000000 -0.1402270000000 1.0   2.58
END
