TITL LFSO-LiFe3S3O2-200909-134519-04fd22 0.1968 258.830609 -9.15115138E+003 -2.61619 3.09242 18 (P3) n - 1
REM
REM Run started: Thu, 10 Sep 2020 04:37:03 +0100 in /lustre/scratch/uccabz1/launch_tmp/launcher_2020-09-09-12-45-18-324318
REM CASTEP 20.1 from code version af48c487+ pr-geom-scf-spinfix Tue Jun 2 15:39:59 2020 +0100
REM Functional Perdew Burke Ernzerhof Relativity Koelling-Harmon Dispersion off
REM Cut-off 340.0000 eV Grid scale 1.7500 Gmax 16.5316 1/A FBSC none
REM MP grid 5 2 2 Offset 0.000 0.000 0.000 No. kpts 10 Spacing 0.07
REM Total runtime: 61256.9 s
REM Overall efficiency: 89.8333 %
REM
REM
REM
REM compiler GCC version 4.9.2
REM options -cpp -iprefix /lustre/shared/ucl/apps/gcc/4.9.2/bin/../lib/gcc/x86_64-unknown-linux-gnu/4.9.2/ -mtune=corei7 -march=x86-64 -g -Og
REM COMMAND_LINE
REM seed 1723173222 -1711385389 108032893 -1827544498 -764505375 100052605 -1460437478 -1910318965 1186205195 576718728 -682307646 1842227698
REM
REM S 3|1.8|5|6|7|30:31:32(qc=5)
REM O 2|1.5|12|13|15|20:21(qc=5)
REM Li 1|1.3|8|9|10|10U:20(qc=5)
REM Fe 3|2.2|2.0|1.0|8|9|10|40:41:32(qc=5)
REM 
CELL 1.54180    3.61028    9.09855    9.09855  120.00000   90.00000   90.00000
LATT -1
SFAC Li O  S  Fe 
Li     1  0.1196450000000  0.3333330000000 -0.3333330000000 1.0   0.02
Li     1 -0.3744180000000  0.3333330000000 -0.3333330000000 1.0  -0.02
O      2  0.2402330000000 -0.1807500000000 -0.3206640000000 1.0  -0.04
O      2  0.2402330000000 -0.1399140000000  0.1807500000000 1.0  -0.04
O      2  0.2402330000000  0.3206640000000  0.1399140000000 1.0  -0.04
O      2 -0.7726380000000 -0.3333330000000  0.3333330000000 1.0  -0.04
S      3 -0.2571290000000 -0.2488550000000 -0.1004460000000 1.0  -0.03
S      3 -0.2571290000000  0.1484090000000  0.2488550000000 1.0  -0.03
S      3 -0.2571290000000  0.1004460000000 -0.1484090000000 1.0  -0.03
S      3 -0.2688030000000  0.0077080000000 -0.5177390000000 1.0   0.01
S      3 -0.2688030000000  0.4745530000000 -0.0077080000000 1.0   0.01
S      3 -0.2688030000000  0.5177390000000 -0.4745530000000 1.0   0.01
Fe     4 -0.2615510000000  0.2850770000000  0.1116450000000 1.0  -0.51
Fe     4 -0.2615510000000 -0.1734320000000 -0.2850770000000 1.0  -0.51
Fe     4 -0.2615510000000 -0.1116450000000  0.1734320000000 1.0  -0.51
Fe     4  0.2289390000000 -0.1206880000000  0.5207790000000 1.0  -0.29
Fe     4  0.2289390000000 -0.3585330000000  0.1206880000000 1.0  -0.29
Fe     4  0.2289390000000 -0.5207790000000  0.3585330000000 1.0  -0.29
END
