TITL LFSO-Li3Fe3S5O-201002-043239-ae25c3 0.0268 422.760244 -1.02922841E+004 0.157124E-01 0.724466E-01 24 (P1) n - 1
REM
REM Run started: Sat, 03 Oct 2020 08:19:59 +0100 in /scratch/scratch/mmm0366/launch_tmp/launcher_2020-10-02-03-32-37-337785
REM CASTEP 19.11| from code version Version unavailable
REM Functional Perdew Burke Ernzerhof Relativity Koelling-Harmon Dispersion off
REM Cut-off 340.0000 eV Grid scale 1.7500 Gmax 16.5316 1/A FBSC none
REM MP grid 4 3 1 Offset 0.000 0.000 0.000 No. kpts 6 Spacing 0.07
REM Total runtime: 108668 s
REM Overall efficiency: 91.5833 %
REM
REM
REM
REM compiler GCC version 4.9.2
REM options -cpp -iprefix /scratch/UCL/applications/gcc/4.9.2/bin/../lib/gcc/x86_64-unknown-linux-gnu/4.9.2/ -mtune=corei7 -march=x86-64 -g -O2
REM COMMAND_LINE
REM seed 1146152580 899601598 -1999322630 490092312 1611596338 -791989768 -174506124 -1084147280 -64271773 1660842813 771668867 1581211632
REM
REM S 3|1.8|5|6|7|30:31:32(qc=5)
REM O 2|1.5|12|13|15|20:21(qc=5)
REM Li 1|1.3|8|9|10|10U:20(qc=5)
REM Fe 3|2.2|2.0|1.0|8|9|10|40:41:32(qc=5)
REM 
CELL 1.54180    4.18396    6.59350   15.32577   90.00000   90.00000   90.69712
LATT -1
SFAC Li O  S  Fe 
Li     1 -0.2577540000000 -0.0928230000000 -0.4711880000000 1.0  -0.00
Li     1  0.2577540000000  0.0928230000000 -0.4711880000000 1.0  -0.00
Li     1 -0.2349080000000 -0.3774250000000  0.1307980000000 1.0  -0.00
Li     1  0.2349080000000  0.3774250000000  0.1307980000000 1.0  -0.00
Li     1  0.2656850000000 -0.1812100000000  0.0494660000000 1.0   0.00
Li     1 -0.2656850000000  0.1812100000000  0.0494660000000 1.0   0.00
O      2  0.7428950000000  0.3322400000000  0.1562780000000 1.0  -0.00
O      2 -0.7428950000000 -0.3322400000000  0.1562780000000 1.0  -0.00
S      3 -0.2544970000000  0.3072310000000 -0.1266090000000 1.0   0.00
S      3  0.2544970000000 -0.3072310000000 -0.1266090000000 1.0   0.00
S      3 -0.2480490000000 -0.2685660000000 -0.2829950000000 1.0  -0.00
S      3  0.2480490000000  0.2685660000000 -0.2829950000000 1.0  -0.00
S      3 -0.2396760000000 -0.2240480000000 -0.0151970000000 1.0   0.00
S      3  0.2396760000000  0.2240480000000 -0.0151970000000 1.0   0.00
S      3  0.2462070000000 -0.2822570000000 -0.4684780000000 1.0   0.00
S      3 -0.2462070000000  0.2822570000000 -0.4684780000000 1.0   0.00
S      3 -0.2295970000000 -0.3018670000000  0.3101830000000 1.0  -0.00
S      3  0.2295970000000  0.3018670000000  0.3101830000000 1.0  -0.00
Fe     4  0.2733140000000 -0.3777820000000  0.2700380000000 1.0  -0.01
Fe     4 -0.2733140000000  0.3777820000000  0.2700380000000 1.0  -0.01
Fe     4  0.2485370000000  0.4143910000000 -0.3994080000000 1.0   0.02
Fe     4 -0.2485370000000 -0.4143910000000 -0.3994080000000 1.0   0.02
Fe     4 -0.2467770000000 -0.3750800000000 -0.1525470000000 1.0  -0.00
Fe     4  0.2467770000000  0.3750800000000 -0.1525470000000 1.0  -0.00
END
