TITL LFSO-Li2FeSO-200912-014819-8df604 0.0040 382.411464 -8.01900212E+003 -11.7779 12.4327 20 (P3) n - 1
REM
REM Run started: Sat, 12 Sep 2020 10:55:31 +0100 in /lustre/scratch/uccabz1/launch_tmp/launcher_2020-09-12-00-48-16-395455
REM CASTEP 20.1 from code version af48c487+ pr-geom-scf-spinfix Tue Jun 2 15:39:59 2020 +0100
REM Functional Perdew Burke Ernzerhof Relativity Koelling-Harmon Dispersion off
REM Cut-off 340.0000 eV Grid scale 1.7500 Gmax 16.5316 1/A FBSC none
REM MP grid 3 3 2 Offset 0.000 0.000 0.000 No. kpts 5 Spacing 0.07
REM Total runtime: 32979.4 s
REM Overall efficiency: 74.6667 %
REM
REM
REM
REM compiler GCC version 4.9.2
REM options -cpp -iprefix /lustre/shared/ucl/apps/gcc/4.9.2/bin/../lib/gcc/x86_64-unknown-linux-gnu/4.9.2/ -mtune=corei7 -march=x86-64 -g -Og
REM COMMAND_LINE
REM seed 873246667 -243007974 -253776419 563728436 -1317761079 213107446 -1783183433 688830738 -166312490 290258992 2010987621 445953955
REM
REM S 3|1.8|5|6|7|30:31:32(qc=5)
REM O 2|1.5|12|13|15|20:21(qc=5)
REM Li 1|1.3|8|9|10|10U:20(qc=5)
REM Fe 3|2.2|2.0|1.0|8|9|10|40:41:32(qc=5)
REM 
CELL 1.54180    7.14111    7.14111    8.65901   90.00000   90.00000  120.00000
LATT -1
SFAC Li O  S  Fe 
Li     1 -0.3256490000000  0.0958030000000  0.2823240000000 1.0  -0.00
Li     1  0.4214520000000  0.3256490000000  0.2823240000000 1.0  -0.00
Li     1 -0.0958030000000 -0.4214520000000  0.2823240000000 1.0  -0.00
Li     1  0.3746380000000  0.0243020000000 -0.3748150000000 1.0   0.00
Li     1 -0.3503350000000 -0.3746380000000 -0.3748150000000 1.0   0.00
Li     1 -0.0243020000000  0.3503350000000 -0.3748150000000 1.0   0.00
Li     1 -0.0000000000000  0.0000000000000  0.1229290000000 1.0   0.01
Li     1  0.3333330000000 -0.3333330000000 -0.1131150000000 1.0  -0.02
O      2  0.5816010000000  0.5864010000000 -0.1752140000000 1.0  -0.23
O      2  0.0048010000000 -0.5816010000000 -0.1752140000000 1.0  -0.23
O      2 -0.5864010000000 -0.0048010000000 -0.1752140000000 1.0  -0.23
O      2 -0.3333330000000  0.3333330000000  0.1528500000000 1.0  -0.06
S      3  0.0756170000000  0.3415350000000  0.2145840000000 1.0  -0.12
S      3  0.2659180000000 -0.0756170000000  0.2145840000000 1.0  -0.12
S      3 -0.3415350000000 -0.2659180000000  0.2145840000000 1.0  -0.12
S      3 -0.3333330000000  0.3333330000000  0.5199610000000 1.0  -0.06
Fe     4 -0.1108500000000 -0.6345390000000  0.0154470000000 1.0  -2.51
Fe     4 -0.5236890000000  0.1108500000000  0.0154470000000 1.0  -2.51
Fe     4  0.6345390000000  0.5236890000000  0.0154470000000 1.0  -2.51
Fe     4 -0.3333330000000  0.3333330000000 -0.1975270000000 1.0  -3.05
END
