TITL LFSO-Li2Fe2S2O-200913-115718-96c8ae -0.0518 117.854295 -3.17040333E+003 4.55866 5.05740 7 (Cm) n - 1
REM
REM Run started: Sun, 13 Sep 2020 12:42:21 +0100 in /lustre/scratch/uccabz1/launch_tmp/launcher_2020-09-13-10-57-16-194268
REM CASTEP 20.1 from code version af48c487+ pr-geom-scf-spinfix Tue Jun 2 15:39:59 2020 +0100
REM Functional Perdew Burke Ernzerhof Relativity Koelling-Harmon Dispersion off
REM Cut-off 340.0000 eV Grid scale 1.7500 Gmax 16.5316 1/A FBSC none
REM MP grid 3 4 4 Offset 0.000 0.000 0.000 No. kpts 16 Spacing 0.07
REM Total runtime: 2730.56 s
REM Overall efficiency: 88.6667 %
REM
REM
REM
REM compiler GCC version 4.9.2
REM options -cpp -iprefix /lustre/shared/ucl/apps/gcc/4.9.2/bin/../lib/gcc/x86_64-unknown-linux-gnu/4.9.2/ -mtune=corei7 -march=x86-64 -g -Og
REM COMMAND_LINE
REM seed 1561337181 -1760836007 255213317 -635057723 -1623645534 -420105100 -1625235629 84003272 2007766975 -1780814519 -1777862061 -100105758
REM
REM S 3|1.8|5|6|7|30:31:32(qc=5)
REM O 2|1.5|12|13|15|20:21(qc=5)
REM Li 1|1.3|8|9|10|10U:20(qc=5)
REM Fe 3|2.2|2.0|1.0|8|9|10|40:41:32(qc=5)
REM 
CELL 1.54180    5.36622    4.87659    4.87659   67.53800   91.74233   91.74233
LATT -1
SFAC Li O  S  Fe 
Li     1 -0.4530380000000 -0.0616320000000  0.4704610000000 1.0  -0.09
Li     1 -0.4530380000000  0.4704610000000 -0.0616320000000 1.0  -0.09
O      2 -0.2523040000000 -0.1931580000000 -0.1931580000000 1.0   0.17
S      3  0.1322130000000  0.3297430000000 -0.1590980000000 1.0  -0.01
S      3  0.1322130000000 -0.1590980000000  0.3297430000000 1.0  -0.01
Fe     4 -0.0156780000000 -0.4379010000000  0.1015890000000 1.0   2.30
Fe     4 -0.0156780000000  0.1015890000000 -0.4379010000000 1.0   2.30
END
