TITL LFSO-Li2Fe2S3O-200913-050949-5d7c8c -0.0753 269.644218 -6.95203299E+003 -14.3520 14.6654 16 (P3) n - 1
REM
REM Run started: Sun, 13 Sep 2020 14:42:53 +0100 in /lustre/scratch/uccabz1/launch_tmp/launcher_2020-09-13-04-09-47-895544
REM CASTEP 20.1 from code version af48c487+ pr-geom-scf-spinfix Tue Jun 2 15:39:59 2020 +0100
REM Functional Perdew Burke Ernzerhof Relativity Koelling-Harmon Dispersion off
REM Cut-off 340.0000 eV Grid scale 1.7500 Gmax 16.5316 1/A FBSC none
REM MP grid 3 3 2 Offset 0.000 0.000 0.000 No. kpts 5 Spacing 0.07
REM Total runtime: 34512.7 s
REM Overall efficiency: 79.2143 %
REM
REM
REM
REM compiler GCC version 4.9.2
REM options -cpp -iprefix /lustre/shared/ucl/apps/gcc/4.9.2/bin/../lib/gcc/x86_64-unknown-linux-gnu/4.9.2/ -mtune=corei7 -march=x86-64 -g -Og
REM COMMAND_LINE
REM seed 1043103646 -509046853 -1914799933 1725216021 1992942341 -2115543430 -372903013 1027808352 1961222677 929526052 1188480177 -786070048
REM
REM S 3|1.8|5|6|7|30:31:32(qc=5)
REM O 2|1.5|12|13|15|20:21(qc=5)
REM Li 1|1.3|8|9|10|10U:20(qc=5)
REM Fe 3|2.2|2.0|1.0|8|9|10|40:41:32(qc=5)
REM 
CELL 1.54180    6.53892    6.53892    7.28196   90.00000   90.00000  120.00000
LATT -1
SFAC Li O  S  Fe 
Li     1 -0.4131930000000 -0.3115110000000  0.1874940000000 1.0  -0.03
Li     1  0.3115110000000 -0.1016810000000  0.1874940000000 1.0  -0.03
Li     1  0.1016810000000  0.4131930000000  0.1874940000000 1.0  -0.03
Li     1 -0.3333330000000  0.3333330000000  0.3138700000000 1.0   0.02
O      2  0.3333330000000 -0.3333330000000  0.3531490000000 1.0  -0.36
O      2  0.3333330000000 -0.3333330000000 -0.2718840000000 1.0  -0.41
S      3 -0.0766170000000 -0.3317050000000  0.0416860000000 1.0  -0.26
S      3  0.3317050000000  0.2550880000000  0.0416860000000 1.0  -0.26
S      3 -0.2550880000000  0.0766170000000  0.0416860000000 1.0  -0.26
S      3 -0.2570960000000 -0.3358150000000  0.5363160000000 1.0  -0.12
S      3  0.3358150000000  0.0787200000000  0.5363160000000 1.0  -0.12
S      3 -0.0787200000000  0.2570960000000  0.5363160000000 1.0  -0.12
Fe     4  0.1015500000000 -0.3324570000000 -0.4380310000000 1.0  -3.10
Fe     4  0.3324570000000  0.4340070000000 -0.4380310000000 1.0  -3.10
Fe     4 -0.4340070000000 -0.1015500000000 -0.4380310000000 1.0  -3.10
Fe     4 -0.3333330000000  0.3333330000000 -0.0635420000000 1.0  -3.06
END
