TITL LFSO-Li4FeS2O-200910-114753-b84fc1 -0.0177 612.978061 -8.12829627E+003 11.9987 12.4475 24 (R3) n - 1
REM
REM Run started: Fri, 11 Sep 2020 21:17:03 +0100 in /lustre/scratch/uccabz1/launch_tmp/launcher_2020-09-10-10-47-51-800259
REM CASTEP 20.1 from code version af48c487+ pr-geom-scf-spinfix Tue Jun 2 15:39:59 2020 +0100
REM Functional Perdew Burke Ernzerhof Relativity Koelling-Harmon Dispersion off
REM Cut-off 340.0000 eV Grid scale 1.7500 Gmax 16.5316 1/A FBSC none
REM MP grid 3 3 3 Offset 0.000 0.000 0.000 No. kpts 6 Spacing 0.07
REM Total runtime: 133139 s
REM Overall efficiency: 92.5833 %
REM
REM
REM
REM compiler GCC version 4.9.2
REM options -cpp -iprefix /lustre/shared/ucl/apps/gcc/4.9.2/bin/../lib/gcc/x86_64-unknown-linux-gnu/4.9.2/ -mtune=corei7 -march=x86-64 -g -Og
REM COMMAND_LINE
REM seed 587224401 1590419323 -368076084 -158047548 404657787 -853697052 415364831 -2039372438 1302981213 67770933 -341199562 -710161942
REM
REM S 3|1.8|5|6|7|30:31:32(qc=5)
REM O 2|1.5|12|13|15|20:21(qc=5)
REM Li 1|1.3|8|9|10|10U:20(qc=5)
REM Fe 3|2.2|2.0|1.0|8|9|10|40:41:32(qc=5)
REM 
CELL 1.54180   11.51467   11.51467   11.51467   41.78763   41.78763   41.78763
LATT -1
SFAC Li O  S  Fe 
Li     1  0.0124360000000 -0.4928600000000  0.0663000000000 1.0  -0.01
Li     1  0.0663000000000  0.0124360000000 -0.4928600000000 1.0  -0.01
Li     1 -0.4928600000000  0.0663000000000  0.0124360000000 1.0  -0.01
Li     1 -0.0698900000000 -0.2683270000000  0.3694000000000 1.0   0.03
Li     1  0.3694000000000 -0.0698900000000 -0.2683270000000 1.0   0.03
Li     1 -0.2683270000000  0.3694000000000 -0.0698900000000 1.0   0.03
Li     1 -0.1249790000000  0.2042730000000  0.2828020000000 1.0   0.00
Li     1  0.2828020000000 -0.1249790000000  0.2042730000000 1.0   0.00
Li     1  0.2042730000000  0.2828020000000 -0.1249790000000 1.0   0.00
Li     1 -0.3739070000000 -0.2911440000000  0.0439750000000 1.0  -0.00
Li     1  0.0439750000000 -0.3739070000000 -0.2911440000000 1.0  -0.00
Li     1 -0.2911440000000  0.0439750000000 -0.3739070000000 1.0  -0.00
O      2  0.4845900000000 -0.1661110000000  0.2014730000000 1.0   0.24
O      2  0.2014730000000  0.4845900000000 -0.1661110000000 1.0   0.24
O      2 -0.1661110000000  0.2014730000000  0.4845900000000 1.0   0.24
S      3 -0.1348300000000 -0.3939480000000  0.3058780000000 1.0   0.25
S      3  0.3058780000000 -0.1348300000000 -0.3939480000000 1.0   0.25
S      3 -0.3939480000000  0.3058780000000 -0.1348300000000 1.0   0.25
S      3 -0.0179640000000 -0.1411830000000  0.4304890000000 1.0   0.01
S      3  0.4304890000000 -0.0179640000000 -0.1411830000000 1.0   0.01
S      3 -0.1411830000000  0.4304890000000 -0.0179640000000 1.0   0.01
Fe     4 -0.4536920000000 -0.2557070000000  0.3734120000000 1.0   3.48
Fe     4  0.3734120000000 -0.4536920000000 -0.2557070000000 1.0   3.48
Fe     4 -0.2557070000000  0.3734120000000 -0.4536920000000 1.0   3.48
END
