TITL LFSO-Li4FeSO2-200910-075312-dcfc3d -0.1282 389.199473 -5.68055045E+003 9.72810 9.82407 16 (Fmm2) n - 1
REM
REM Run started: Thu, 10 Sep 2020 21:09:36 +0100 in /lustre/scratch/uccabz1/launch_tmp/launcher_2020-09-10-06-53-09-886605
REM CASTEP 20.1 from code version af48c487+ pr-geom-scf-spinfix Tue Jun 2 15:39:59 2020 +0100
REM Functional Perdew Burke Ernzerhof Relativity Koelling-Harmon Dispersion off
REM Cut-off 340.0000 eV Grid scale 1.7500 Gmax 16.5316 1/A FBSC none
REM MP grid 3 3 3 Offset 0.000 0.000 0.000 No. kpts 8 Spacing 0.07
REM Total runtime: 54035.6 s
REM Overall efficiency: 98.1538 %
REM
REM
REM
REM compiler GCC version 4.9.2
REM options -cpp -iprefix /lustre/shared/ucl/apps/gcc/4.9.2/bin/../lib/gcc/x86_64-unknown-linux-gnu/4.9.2/ -mtune=corei7 -march=x86-64 -g -Og
REM COMMAND_LINE
REM seed 458672283 315489024 1085907842 669254688 1579370496 -1272755742 -1832974635 722856832 -1382116444 1486927369 379747571 1859560421
REM
REM S 3|1.8|5|6|7|30:31:32(qc=5)
REM O 2|1.5|12|13|15|20:21(qc=5)
REM Li 1|1.3|8|9|10|10U:20(qc=5)
REM Fe 3|2.2|2.0|1.0|8|9|10|40:41:32(qc=5)
REM 
CELL 1.54180   10.41621   10.41621    6.64405  100.34667  100.34667  140.43273
LATT -1
SFAC Li O  S  Fe 
Li     1  0.0287040000000  0.8521690000000  0.4470830000000 1.0   0.01
Li     1  0.4183790000000  0.5949140000000  0.4470830000000 1.0   0.01
Li     1 -0.1478310000000  0.0287040000000  0.4470830000000 1.0   0.01
Li     1 -0.4050860000000  0.4183790000000  0.4470830000000 1.0   0.01
Li     1 -0.5498210000000  0.0820850000000  0.0345430000000 1.0   0.03
Li     1  0.5843640000000 -0.0475410000000  0.0345430000000 1.0   0.03
Li     1  0.0820850000000 -0.5498210000000  0.0345430000000 1.0   0.03
Li     1 -0.0475410000000  0.5843640000000  0.0345430000000 1.0   0.03
O      2 -0.2479300000000  0.0934770000000  0.3493160000000 1.0   0.37
O      2  0.5972460000000  0.2558390000000  0.3493160000000 1.0   0.37
O      2  0.0934770000000 -0.2479300000000  0.3493160000000 1.0   0.37
O      2  0.2558390000000  0.5972460000000  0.3493160000000 1.0   0.37
S      3  0.1585450000000 -0.3411370000000 -0.1825920000000 1.0   0.26
S      3 -0.3411370000000  0.1585450000000 -0.1825920000000 1.0   0.26
Fe     4  0.2590250000000 -0.2409750000000 -0.4819500000000 1.0   3.79
Fe     4 -0.2409750000000 -0.7409750000000 -0.4819500000000 1.0   3.79
END
