TITL LFSO-Li2Fe2S2O-200913-122214-fd5dd7 0.1144 212.318109 -6.34259937E+003 7.84544 8.74888 14 (R3) n - 1
REM
REM Run started: Sun, 13 Sep 2020 22:56:46 +0100 in /lustre/scratch/uccabz1/launch_tmp/launcher_2020-09-13-11-22-12-878261
REM CASTEP 20.1 from code version af48c487+ pr-geom-scf-spinfix Tue Jun 2 15:39:59 2020 +0100
REM Functional Perdew Burke Ernzerhof Relativity Koelling-Harmon Dispersion off
REM Cut-off 340.0000 eV Grid scale 1.7500 Gmax 16.5316 1/A FBSC none
REM MP grid 3 3 3 Offset 0.000 0.000 0.000 No. kpts 6 Spacing 0.07
REM Total runtime: 41551.1 s
REM Overall efficiency: 98.3333 %
REM
REM
REM
REM compiler GCC version 4.9.2
REM options -cpp -iprefix /lustre/shared/ucl/apps/gcc/4.9.2/bin/../lib/gcc/x86_64-unknown-linux-gnu/4.9.2/ -mtune=corei7 -march=x86-64 -g -Og
REM COMMAND_LINE
REM seed -2093084609 455791366 2625974 -1284296850 -917483837 363549193 -1807225252 1599505912 408284608 470538835 983181380 -1466389410
REM
REM S 3|1.8|5|6|7|30:31:32(qc=5)
REM O 2|1.5|12|13|15|20:21(qc=5)
REM Li 1|1.3|8|9|10|10U:20(qc=5)
REM Fe 3|2.2|2.0|1.0|8|9|10|40:41:32(qc=5)
REM 
CELL 1.54180    7.96682    7.96682    7.96682   42.89776   42.89776   42.89776
LATT -1
SFAC Li O  S  Fe 
Li     1 -0.0693880000000  0.3557890000000 -0.1793980000000 1.0   0.01
Li     1 -0.1793980000000 -0.0693880000000  0.3557890000000 1.0   0.01
Li     1  0.3557890000000 -0.1793980000000 -0.0693880000000 1.0   0.01
Li     1  0.4454240000000  0.4454240000000  0.4454240000000 1.0  -0.21
O      2  0.1083200000000  0.1083200000000  0.1083200000000 1.0   0.04
O      2 -0.2680460000000 -0.2680460000000 -0.2680460000000 1.0  -0.02
S      3 -0.3925710000000  0.2607440000000 -0.0403650000000 1.0   0.06
S      3 -0.0403650000000 -0.3925710000000  0.2607440000000 1.0   0.06
S      3  0.2607440000000 -0.0403650000000 -0.3925710000000 1.0   0.06
S      3 -0.1894150000000 -0.1894150000000 -0.1894150000000 1.0  -0.06
Fe     4 -0.0358650000000 -0.5690790000000  0.1414820000000 1.0   2.03
Fe     4  0.1414820000000 -0.0358650000000 -0.5690790000000 1.0   2.03
Fe     4 -0.5690790000000  0.1414820000000 -0.0358650000000 1.0   2.03
Fe     4 -0.4289800000000 -0.4289800000000 -0.4289800000000 1.0   1.81
END
