TITL LFSO-Li6FeS2O2-200920-205522-7eac0a -0.0813 509.372586 -7.09100029E+003 7.99131 8.24611 22 (C2/m) n - 1
REM
REM Run started: Mon, 21 Sep 2020 09:15:13 +0100 in /lustre/scratch/uccabz1/launch_tmp/launcher_2020-09-21-02-04-00-883276
REM CASTEP 20.1 from code version af48c487+ pr-geom-scf-spinfix Tue Jun 2 15:39:59 2020 +0100
REM Functional Perdew Burke Ernzerhof Relativity Koelling-Harmon Dispersion off
REM Cut-off 340.0000 eV Grid scale 1.7500 Gmax 16.5316 1/A FBSC none
REM MP grid 2 3 3 Offset 0.000 0.000 0.000 No. kpts 9 Spacing 0.07
REM Total runtime: 48618.6 s
REM Overall efficiency: 98.4545 %
REM
REM
REM
REM compiler GCC version 4.9.2
REM options -cpp -iprefix /lustre/shared/ucl/apps/gcc/4.9.2/bin/../lib/gcc/x86_64-unknown-linux-gnu/4.9.2/ -mtune=corei7 -march=x86-64 -g -Og
REM COMMAND_LINE
REM seed -292433847 -2145405154 1931464580 -1918871567 -1102897295 -1687498286 -1608689809 887911889 1460823890 132937109 -956866164 -307993582
REM
REM S 3|1.8|5|6|7|30:31:32(qc=5)
REM O 2|1.5|12|13|15|20:21(qc=5)
REM Li 1|1.3|8|9|10|10U:20(qc=5)
REM Fe 3|2.2|2.0|1.0|8|9|10|40:41:32(qc=5)
REM 
CELL 1.54180   11.34631    8.67557    7.11128  101.95065   90.00000  130.83811
LATT -1
SFAC Li O  S  Fe 
Li     1  0.2960390000000  0.1486190000000 -0.3347050000000 1.0   0.00
Li     1  0.1474200000000 -0.1486190000000  0.3347050000000 1.0   0.00
Li     1 -0.2960390000000 -0.1486190000000  0.3347050000000 1.0   0.00
Li     1 -0.1474200000000  0.1486190000000 -0.3347050000000 1.0   0.00
Li     1  0.3977030000000  0.4870400000000 -0.4045760000000 1.0  -0.04
Li     1 -0.0893370000000 -0.4870400000000  0.4045760000000 1.0  -0.04
Li     1 -0.3977030000000 -0.4870400000000  0.4045760000000 1.0  -0.04
Li     1  0.0893370000000  0.4870400000000 -0.4045760000000 1.0  -0.04
Li     1 -0.0533400000000  0.3562070000000  0.0841540000000 1.0  -0.02
Li     1 -0.4095460000000 -0.3562070000000 -0.0841540000000 1.0  -0.02
Li     1  0.0533400000000 -0.3562070000000 -0.0841540000000 1.0  -0.02
Li     1  0.4095460000000  0.3562070000000  0.0841540000000 1.0  -0.02
O      2 -0.0416230000000 -0.3977860000000  0.1483130000000 1.0   0.18
O      2  0.3561630000000  0.3977860000000 -0.1483130000000 1.0   0.18
O      2  0.0416230000000  0.3977860000000 -0.1483130000000 1.0   0.18
O      2 -0.3561630000000 -0.3977860000000  0.1483130000000 1.0   0.18
S      3  0.1290920000000 -0.2072000000000 -0.3480960000000 1.0   0.07
S      3  0.3362920000000  0.2072000000000  0.3480960000000 1.0   0.07
S      3 -0.1290920000000  0.2072000000000  0.3480960000000 1.0   0.07
S      3 -0.3362920000000 -0.2072000000000 -0.3480960000000 1.0   0.07
Fe     4 -0.1926160000000 -0.3852310000000  0.1326930000000 1.0   3.60
Fe     4  0.1926160000000  0.3852310000000 -0.1326930000000 1.0   3.60
END
