TITL LFSO-Li2Fe2S3O-200913-035931-7ea115 -0.0041 682.151339 -6.95292509E+003 7.84320 9.10214 16 (Imm2) n - 1
REM
REM Run started: Sun, 13 Sep 2020 18:54:19 +0100 in /lustre/scratch/uccabz1/launch_tmp/launcher_2020-09-13-02-59-29-622183
REM CASTEP 20.1 from code version af48c487+ pr-geom-scf-spinfix Tue Jun 2 15:39:59 2020 +0100
REM Functional Perdew Burke Ernzerhof Relativity Koelling-Harmon Dispersion off
REM Cut-off 340.0000 eV Grid scale 1.7500 Gmax 16.5316 1/A FBSC none
REM MP grid 3 2 2 Offset 0.000 0.000 0.000 No. kpts 5 Spacing 0.07
REM Total runtime: 65788.6 s
REM Overall efficiency: 77.5 %
REM
REM
REM
REM compiler GCC version 4.9.2
REM options -cpp -iprefix /lustre/shared/ucl/apps/gcc/4.9.2/bin/../lib/gcc/x86_64-unknown-linux-gnu/4.9.2/ -mtune=corei7 -march=x86-64 -g -Og
REM COMMAND_LINE
REM seed 1105932645 -1380648503 722019325 1701786396 9200324 2005077034 -2074468056 990432292 385201605 -945650374 -735997429 -1456137667
REM
REM S 3|1.8|5|6|7|30:31:32(qc=5)
REM O 2|1.5|12|13|15|20:21(qc=5)
REM Li 1|1.3|8|9|10|10U:20(qc=5)
REM Fe 3|2.2|2.0|1.0|8|9|10|40:41:32(qc=5)
REM 
CELL 1.54180    5.68851   12.77417   12.77417   49.28596   77.13486   77.13486
LATT -1
SFAC Li O  S  Fe 
Li     1 -0.3522650000000 -0.3382400000000 -0.1091330000000 1.0   0.01
Li     1  0.2003620000000  0.3382400000000  0.1091330000000 1.0   0.01
Li     1  0.2003620000000  0.1091330000000  0.3382400000000 1.0   0.01
Li     1 -0.3522650000000 -0.1091330000000 -0.3382400000000 1.0   0.01
O      2 -0.1018960000000 -0.2155700000000 -0.2155700000000 1.0   0.13
O      2 -0.5330360000000  0.2155700000000  0.2155700000000 1.0   0.13
S      3  0.3339220000000 -0.4665450000000  0.0525140000000 1.0   0.02
S      3 -0.0801090000000  0.4665450000000 -0.0525140000000 1.0   0.02
S      3 -0.0801090000000 -0.0525140000000  0.4665450000000 1.0   0.02
S      3  0.3339220000000  0.0525140000000 -0.4665450000000 1.0   0.02
S      3  0.4379250000000 -0.2919160000000 -0.2919160000000 1.0   0.09
S      3 -0.1459070000000  0.2919160000000  0.2919160000000 1.0   0.09
Fe     4  0.1360420000000 -0.1305370000000 -0.3638870000000 1.0   1.82
Fe     4 -0.3583820000000  0.1305370000000  0.3638870000000 1.0   1.82
Fe     4 -0.3583820000000  0.3638870000000  0.1305370000000 1.0   1.82
Fe     4  0.1360420000000 -0.3638870000000 -0.1305370000000 1.0   1.82
END
