TITL LFSO-Li4FeSO2-200910-090752-5ba483 0.0116 270.636950 -5.68568322E+003 -7.98200 8.14469 16 (P2) n - 1
REM
REM Run started: Thu, 10 Sep 2020 13:54:48 +0100 in /lustre/scratch/uccabz1/launch_tmp/launcher_2020-09-10-08-07-50-625349
REM CASTEP 20.1 from code version af48c487+ pr-geom-scf-spinfix Tue Jun 2 15:39:59 2020 +0100
REM Functional Perdew Burke Ernzerhof Relativity Koelling-Harmon Dispersion off
REM Cut-off 340.0000 eV Grid scale 1.7500 Gmax 16.5316 1/A FBSC none
REM MP grid 5 3 2 Offset 0.000 0.000 0.000 No. kpts 10 Spacing 0.07
REM Total runtime: 16574.7 s
REM Overall efficiency: 84.4545 %
REM
REM
REM
REM compiler GCC version 4.9.2
REM options -cpp -iprefix /lustre/shared/ucl/apps/gcc/4.9.2/bin/../lib/gcc/x86_64-unknown-linux-gnu/4.9.2/ -mtune=corei7 -march=x86-64 -g -Og
REM COMMAND_LINE
REM seed 885741221 987155137 -162440408 -199095972 513461014 -1555905850 958960111 1601314115 -1583867334 166643404 -1899888130 1554667812
REM
REM S 3|1.8|5|6|7|30:31:32(qc=5)
REM O 2|1.5|12|13|15|20:21(qc=5)
REM Li 1|1.3|8|9|10|10U:20(qc=5)
REM Fe 3|2.2|2.0|1.0|8|9|10|40:41:32(qc=5)
REM 
CELL 1.54180    3.58739    6.32722   12.62062   90.00000  109.13580   90.00000
LATT -1
SFAC Li O  S  Fe 
Li     1  0.3131470000000  0.2812200000000 -0.4422540000000 1.0  -0.00
Li     1 -0.3131470000000  0.2812200000000  0.4422540000000 1.0  -0.00
Li     1  0.0110650000000 -0.6235850000000 -0.2465970000000 1.0   0.01
Li     1 -0.0110650000000 -0.6235850000000  0.2465970000000 1.0   0.01
Li     1 -0.6352680000000 -0.3652800000000  0.1018070000000 1.0  -0.05
Li     1  0.6352680000000 -0.3652800000000 -0.1018070000000 1.0  -0.05
Li     1  0.0683350000000  0.0149580000000  0.3208510000000 1.0   0.02
Li     1 -0.0683350000000  0.0149580000000 -0.3208510000000 1.0   0.02
O      2  0.1311800000000  0.2565310000000  0.3917560000000 1.0  -0.01
O      2 -0.1311800000000  0.2565310000000 -0.3917560000000 1.0  -0.01
O      2  0.5905140000000  0.3713960000000 -0.1560540000000 1.0  -0.34
O      2 -0.5905140000000  0.3713960000000  0.1560540000000 1.0  -0.34
S      3 -0.1008030000000 -0.1157460000000  0.1343800000000 1.0  -0.19
S      3  0.1008030000000 -0.1157460000000 -0.1343800000000 1.0  -0.19
Fe     4 -0.6577350000000  0.1222810000000  0.0845940000000 1.0  -3.43
Fe     4  0.6577350000000  0.1222810000000 -0.0845940000000 1.0  -3.43
END
