TITL LFSO-Li4FeSO2-200910-081718-e81c4a 0.0046 550.420365 -8.52266139E+003 -3.99928 10.3311 24 (Pm) n - 1
REM
REM Run started: Fri, 11 Sep 2020 06:56:02 +0100 in /lustre/scratch/uccabz1/launch_tmp/launcher_2020-09-10-07-17-16-611125
REM CASTEP 20.1 from code version af48c487+ pr-geom-scf-spinfix Tue Jun 2 15:39:59 2020 +0100
REM Functional Perdew Burke Ernzerhof Relativity Koelling-Harmon Dispersion off
REM Cut-off 340.0000 eV Grid scale 1.7500 Gmax 16.5316 1/A FBSC none
REM MP grid 2 2 2 Offset 0.000 0.000 0.000 No. kpts 2 Spacing 0.07
REM Total runtime: 81614.3 s
REM Overall efficiency: 90.25 %
REM
REM
REM
REM compiler GCC version 4.9.2
REM options -cpp -iprefix /lustre/shared/ucl/apps/gcc/4.9.2/bin/../lib/gcc/x86_64-unknown-linux-gnu/4.9.2/ -mtune=corei7 -march=x86-64 -g -Og
REM COMMAND_LINE
REM seed -1144366538 -543455128 -1347923252 400532841 782655877 761220955 779259818 -1957450108 -482028313 1072646119 1004792978 219896036
REM
REM S 3|1.8|5|6|7|30:31:32(qc=5)
REM O 2|1.5|12|13|15|20:21(qc=5)
REM Li 1|1.3|8|9|10|10U:20(qc=5)
REM Fe 3|2.2|2.0|1.0|8|9|10|40:41:32(qc=5)
REM 
CELL 1.54180    7.88878    7.57364    9.29627   97.69531   90.00000   90.00000
LATT -1
SFAC Li O  S  Fe 
Li     1  0.1977740000000 -0.3082270000000  0.1695610000000 1.0   0.00
Li     1 -0.1977740000000 -0.3082270000000  0.1695610000000 1.0   0.00
Li     1  0.1991100000000 -0.5472850000000  0.4731850000000 1.0  -0.04
Li     1 -0.1991100000000 -0.5472850000000  0.4731850000000 1.0  -0.04
Li     1 -0.1692550000000 -0.6596690000000 -0.0544950000000 1.0   0.03
Li     1  0.1692550000000 -0.6596690000000 -0.0544950000000 1.0   0.03
Li     1 -0.1705020000000 -0.1614030000000 -0.1847420000000 1.0   0.04
Li     1  0.1705020000000 -0.1614030000000 -0.1847420000000 1.0   0.04
Li     1 -0.2404680000000  0.0403820000000  0.0501060000000 1.0   0.00
Li     1  0.2404680000000  0.0403820000000  0.0501060000000 1.0   0.00
Li     1  0.2598290000000  0.0635480000000  0.3347030000000 1.0  -0.02
Li     1 -0.2598290000000  0.0635480000000  0.3347030000000 1.0  -0.02
O      2  0.2522660000000 -0.0924230000000  0.1832030000000 1.0  -0.01
O      2 -0.2522660000000 -0.0924230000000  0.1832030000000 1.0  -0.01
O      2  0.2002000000000  0.0951370000000 -0.1388550000000 1.0  -0.21
O      2 -0.2002000000000  0.0951370000000 -0.1388550000000 1.0  -0.21
O      2  0.2704700000000  0.2344580000000  0.5185510000000 1.0  -0.02
O      2 -0.2704700000000  0.2344580000000  0.5185510000000 1.0  -0.02
S      3  0.1362150000000  0.3980490000000  0.2125310000000 1.0  -0.01
S      3 -0.1362150000000  0.3980490000000  0.2125310000000 1.0  -0.01
S      3  0.0000000000000  0.5670300000000 -0.2026660000000 1.0  -0.05
Fe     4  0.1782970000000  0.1590810000000 -0.3170980000000 1.0  -3.20
Fe     4 -0.1782970000000  0.1590810000000 -0.3170980000000 1.0  -3.20
Fe     4  0.5000000000000  0.2478840000000 -0.4597350000000 1.0   2.89
END
