TITL LFSO-Li4Fe2S4O-200910-175619-b7ae4e 0.8408 409.856173 -8.35784923E+003 10.9701 12.3872 22 (R3) n - 1
REM
REM Run started: Sat, 12 Sep 2020 12:35:30 +0100 in /lustre/scratch/uccabz1/launch_tmp/launcher_2020-09-12-11-01-41-234687
REM CASTEP 20.1 from code version af48c487+ pr-geom-scf-spinfix Tue Jun 2 15:39:59 2020 +0100
REM Functional Perdew Burke Ernzerhof Relativity Koelling-Harmon Dispersion off
REM Cut-off 340.0000 eV Grid scale 1.7500 Gmax 16.5316 1/A FBSC none
REM MP grid 3 3 3 Offset 0.000 0.000 0.000 No. kpts 6 Spacing 0.07
REM Total runtime: 78603.4 s
REM Overall efficiency: 98.4 %
REM
REM
REM
REM compiler GCC version 4.9.2
REM options -cpp -iprefix /lustre/shared/ucl/apps/gcc/4.9.2/bin/../lib/gcc/x86_64-unknown-linux-gnu/4.9.2/ -mtune=corei7 -march=x86-64 -g -Og
REM COMMAND_LINE
REM seed -1681092234 1649535220 1410170459 -208372150 1644140081 -1862727908 -93042339 -1381026082 753203209 -397926430 -1438600382 -927711859
REM
REM S 3|1.8|5|6|7|30:31:32(qc=5)
REM O 2|1.5|12|13|15|20:21(qc=5)
REM Li 1|1.3|8|9|10|10U:20(qc=5)
REM Fe 3|2.2|2.0|1.0|8|9|10|40:41:32(qc=5)
REM 
CELL 1.54180    9.31335    9.31335    9.31335   48.08293   48.08293   48.08293
LATT -1
SFAC Li O  S  Fe 
Li     1 -0.0246210000000  0.6464250000000  0.0287340000000 1.0   0.01
Li     1  0.0287340000000 -0.0246210000000  0.6464250000000 1.0   0.01
Li     1  0.6464250000000  0.0287340000000 -0.0246210000000 1.0   0.01
Li     1 -0.1894100000000 -0.0479550000000  0.5718870000000 1.0  -0.00
Li     1  0.5718870000000 -0.1894100000000 -0.0479550000000 1.0  -0.00
Li     1 -0.0479550000000  0.5718870000000 -0.1894100000000 1.0  -0.00
Li     1  0.3410180000000  0.3410180000000  0.3410180000000 1.0  -0.03
Li     1 -0.4321700000000 -0.4321700000000 -0.4321700000000 1.0   0.02
O      2 -0.1656280000000 -0.1656280000000 -0.1656280000000 1.0   0.02
O      2 -0.2874190000000 -0.2874190000000 -0.2874190000000 1.0   0.11
S      3  0.3995180000000  0.1348790000000 -0.3433620000000 1.0  -0.05
S      3 -0.3433620000000  0.3995180000000  0.1348790000000 1.0  -0.05
S      3  0.1348790000000 -0.3433620000000  0.3995180000000 1.0  -0.05
S      3 -0.2884590000000 -0.1750330000000  0.2975850000000 1.0   0.21
S      3  0.2975850000000 -0.2884590000000 -0.1750330000000 1.0   0.21
S      3 -0.1750330000000  0.2975850000000 -0.2884590000000 1.0   0.21
S      3  0.0758130000000  0.0758130000000  0.0758130000000 1.0  -0.32
S      3  0.2454920000000  0.2454920000000  0.2454920000000 1.0   0.15
Fe     4 -0.4003370000000 -0.4910140000000 -0.1183820000000 1.0   2.50
Fe     4 -0.1183820000000 -0.4003370000000 -0.4910140000000 1.0   2.50
Fe     4 -0.4910140000000 -0.1183820000000 -0.4003370000000 1.0   2.50
Fe     4  0.1604910000000  0.1604910000000  0.1604910000000 1.0   3.00
END
