TITL LFSO-Li2Fe3S3O-200912-200952-a605e0 0.0655 131.423179 -4.33761846E+003 9.13892 9.38315 9 (R3) n - 1
REM
REM Run started: Sat, 12 Sep 2020 20:42:45 +0100 in /lustre/scratch/uccabz1/launch_tmp/launcher_2020-09-12-19-09-51-295940
REM CASTEP 20.1 from code version af48c487+ pr-geom-scf-spinfix Tue Jun 2 15:39:59 2020 +0100
REM Functional Perdew Burke Ernzerhof Relativity Koelling-Harmon Dispersion off
REM Cut-off 340.0000 eV Grid scale 1.7500 Gmax 16.5316 1/A FBSC none
REM MP grid 3 3 3 Offset 0.000 0.000 0.000 No. kpts 6 Spacing 0.07
REM Total runtime: 2007.7 s
REM Overall efficiency: 87.2857 %
REM
REM
REM
REM compiler GCC version 4.9.2
REM options -cpp -iprefix /lustre/shared/ucl/apps/gcc/4.9.2/bin/../lib/gcc/x86_64-unknown-linux-gnu/4.9.2/ -mtune=corei7 -march=x86-64 -g -Og
REM COMMAND_LINE
REM seed 1778214411 515863556 2050213329 -2125483145 -1800196677 -457096119 -50717467 1901279778 -583186880 -797773503 884455305 -474837708
REM
REM S 3|1.8|5|6|7|30:31:32(qc=5)
REM O 2|1.5|12|13|15|20:21(qc=5)
REM Li 1|1.3|8|9|10|10U:20(qc=5)
REM Fe 3|2.2|2.0|1.0|8|9|10|40:41:32(qc=5)
REM 
CELL 1.54180    5.34837    5.34837    5.34837   70.40071   70.40071   70.40071
LATT -1
SFAC Li O  S  Fe 
Li     1  0.3597240000000  0.3597240000000  0.3597240000000 1.0  -0.09
Li     1 -0.1145290000000 -0.1145290000000 -0.1145290000000 1.0  -0.08
O      2  0.0342460000000  0.0342460000000  0.0342460000000 1.0   0.14
S      3  0.2688270000000 -0.1314490000000 -0.5057640000000 1.0   0.22
S      3 -0.5057640000000  0.2688270000000 -0.1314490000000 1.0   0.22
S      3 -0.1314490000000 -0.5057640000000  0.2688270000000 1.0   0.22
Fe     4 -0.5869340000000 -0.0982310000000 -0.1775130000000 1.0   2.84
Fe     4 -0.1775130000000 -0.5869340000000 -0.0982310000000 1.0   2.84
Fe     4 -0.0982310000000 -0.1775130000000 -0.5869340000000 1.0   2.84
END
