TITL LFSO-Li2Fe2S2O-200913-135930-c32881 0.0613 233.808767 -6.34162950E+003 -0.448747 2.70896 14 (P3) n - 1
REM
REM Run started: Sun, 13 Sep 2020 20:48:04 +0100 in /lustre/scratch/uccabz1/launch_tmp/launcher_2020-09-13-12-59-28-109649
REM CASTEP 20.1 from code version af48c487+ pr-geom-scf-spinfix Tue Jun 2 15:39:59 2020 +0100
REM Functional Perdew Burke Ernzerhof Relativity Koelling-Harmon Dispersion off
REM Cut-off 340.0000 eV Grid scale 1.7500 Gmax 16.5316 1/A FBSC none
REM MP grid 3 3 3 Offset 0.000 0.000 0.000 No. kpts 8 Spacing 0.07
REM Total runtime: 24614 s
REM Overall efficiency: 95.375 %
REM
REM
REM
REM compiler GCC version 4.9.2
REM options -cpp -iprefix /lustre/shared/ucl/apps/gcc/4.9.2/bin/../lib/gcc/x86_64-unknown-linux-gnu/4.9.2/ -mtune=corei7 -march=x86-64 -g -Og
REM COMMAND_LINE
REM seed -1146206550 -2003032940 1642582745 2039449529 -1279060328 1657907538 2093993941 -585275776 -1546546460 -850631754 1209965207 -1933650518
REM
REM S 3|1.8|5|6|7|30:31:32(qc=5)
REM O 2|1.5|12|13|15|20:21(qc=5)
REM Li 1|1.3|8|9|10|10U:20(qc=5)
REM Fe 3|2.2|2.0|1.0|8|9|10|40:41:32(qc=5)
REM 
CELL 1.54180    6.44181    6.44181    6.50600   90.00000   90.00000  120.00000
LATT -1
SFAC Li O  S  Fe 
Li     1 -0.3684640000000 -0.1931790000000 -0.3758850000000 1.0   0.06
Li     1  0.1752850000000  0.3684640000000 -0.3758850000000 1.0   0.06
Li     1  0.1931790000000 -0.1752850000000 -0.3758850000000 1.0   0.06
Li     1 -0.3333330000000  0.3333330000000 -0.3471710000000 1.0   0.00
O      2 -0.3333330000000  0.3333330000000  0.3902390000000 1.0   0.02
O      2  0.3333330000000 -0.3333330000000 -0.4752800000000 1.0   0.00
S      3  0.1704740000000  0.3425730000000  0.0872570000000 1.0   0.01
S      3  0.1720990000000 -0.1704740000000  0.0872570000000 1.0   0.01
S      3 -0.3425730000000 -0.1720990000000  0.0872570000000 1.0   0.01
S      3 -0.3333330000000  0.3333330000000 -0.0069250000000 1.0  -0.04
Fe     4 -0.0472240000000 -0.5227450000000  0.2092080000000 1.0   0.31
Fe     4 -0.4755210000000  0.0472240000000  0.2092080000000 1.0   0.31
Fe     4  0.5227450000000  0.4755210000000  0.2092080000000 1.0   0.31
Fe     4  0.0000000000000 -0.0000000000000 -0.0386160000000 1.0  -1.56
END
