TITL LFSO-Li2Fe2S3O-200913-064257-c5b7ef 0.0045 266.866873 -6.95164917E+003 11.6676 12.1107 16 (I212121) n - 1
REM
REM Run started: Sun, 13 Sep 2020 12:23:21 +0100 in /lustre/scratch/uccabz1/launch_tmp/launcher_2020-09-13-05-42-55-912876
REM CASTEP 20.1 from code version af48c487+ pr-geom-scf-spinfix Tue Jun 2 15:39:59 2020 +0100
REM Functional Perdew Burke Ernzerhof Relativity Koelling-Harmon Dispersion off
REM Cut-off 340.0000 eV Grid scale 1.7500 Gmax 16.5316 1/A FBSC none
REM MP grid 3 3 3 Offset 0.000 0.000 0.000 No. kpts 8 Spacing 0.07
REM Total runtime: 20687.3 s
REM Overall efficiency: 97.3333 %
REM
REM
REM
REM compiler GCC version 4.9.2
REM options -cpp -iprefix /lustre/shared/ucl/apps/gcc/4.9.2/bin/../lib/gcc/x86_64-unknown-linux-gnu/4.9.2/ -mtune=corei7 -march=x86-64 -g -Og
REM COMMAND_LINE
REM seed 305863557 1289825752 -1838076757 740689461 -527188933 -276930747 -93316787 -1535523153 -1184226110 1334546291 1513705578 -741997299
REM
REM S 3|1.8|5|6|7|30:31:32(qc=5)
REM O 2|1.5|12|13|15|20:21(qc=5)
REM Li 1|1.3|8|9|10|10U:20(qc=5)
REM Fe 3|2.2|2.0|1.0|8|9|10|40:41:32(qc=5)
REM 
CELL 1.54180    7.55003    7.55067    7.55067   47.77169   60.00280   60.00280
LATT -1
SFAC Li O  S  Fe 
Li     1 -0.0733410000000  0.1485650000000  0.0502220000000 1.0  -0.02
Li     1 -0.3745540000000  0.3514350000000  0.4497780000000 1.0  -0.02
Li     1 -0.1254460000000 -0.4497780000000 -0.3514350000000 1.0  -0.02
Li     1 -0.4266590000000 -0.0502220000000 -0.1485650000000 1.0  -0.02
O      2  0.0308920000000  0.2191080000000 -0.2808920000000 1.0   0.17
O      2  0.4691080000000  0.2808920000000 -0.2191080000000 1.0   0.17
S      3  0.0170940000000  0.4911920000000  0.0186270000000 1.0   0.18
S      3  0.0269130000000  0.0088080000000  0.4813730000000 1.0   0.18
S      3 -0.5269130000000 -0.4813730000000 -0.0088080000000 1.0   0.18
S      3 -0.5170940000000 -0.0186270000000 -0.4911920000000 1.0   0.18
S      3  0.0183370000000 -0.2683370000000  0.2316630000000 1.0   0.13
S      3  0.4816630000000 -0.2316630000000  0.2683370000000 1.0   0.13
Fe     4  0.2043800000000 -0.1129490000000 -0.1645880000000 1.0   2.60
Fe     4  0.4268430000000 -0.3870510000000 -0.3354120000000 1.0   2.60
Fe     4  0.0731570000000  0.3354120000000  0.3870510000000 1.0   2.60
Fe     4  0.2956200000000  0.1645880000000  0.1129490000000 1.0   2.60
END
