TITL LFSO-Li4Fe2S2O3-200911-130914-891fe0 -0.0555 403.804451 -8.89532322E+003 17.5672 17.7043 22 (P3) n - 1
REM
REM Run started: Fri, 11 Sep 2020 23:42:16 +0100 in /lustre/scratch/uccabz1/launch_tmp/launcher_2020-09-11-22-11-41-374870
REM CASTEP 20.1 from code version af48c487+ pr-geom-scf-spinfix Tue Jun 2 15:39:59 2020 +0100
REM Functional Perdew Burke Ernzerhof Relativity Koelling-Harmon Dispersion off
REM Cut-off 340.0000 eV Grid scale 1.7500 Gmax 16.5316 1/A FBSC none
REM MP grid 2 3 3 Offset 0.000 0.000 0.000 No. kpts 5 Spacing 0.07
REM Total runtime: 36089.6 s
REM Overall efficiency: 86.3 %
REM
REM
REM
REM compiler GCC version 4.9.2
REM options -cpp -iprefix /lustre/shared/ucl/apps/gcc/4.9.2/bin/../lib/gcc/x86_64-unknown-linux-gnu/4.9.2/ -mtune=corei7 -march=x86-64 -g -Og
REM COMMAND_LINE
REM seed 1187155241 -1398445024 1344697395 -1415710490 -830537832 -1719580956 -88654365 351550736 -730103181 972007010 -672426843 1354033208
REM
REM S 3|1.8|5|6|7|30:31:32(qc=5)
REM O 2|1.5|12|13|15|20:21(qc=5)
REM Li 1|1.3|8|9|10|10U:20(qc=5)
REM Fe 3|2.2|2.0|1.0|8|9|10|40:41:32(qc=5)
REM 
CELL 1.54180    7.95997    7.65358    7.65358  120.00000   90.00000   90.00000
LATT -1
SFAC Li O  S  Fe 
Li     1 -0.2678940000000  0.4011750000000 -0.6270110000000 1.0  -0.00
Li     1 -0.2678940000000  0.6270110000000  0.0281870000000 1.0  -0.00
Li     1 -0.2678940000000 -0.0281870000000 -0.4011750000000 1.0  -0.00
Li     1  0.3508990000000 -0.0582270000000  0.3038680000000 1.0   0.02
Li     1  0.3508990000000 -0.3038680000000 -0.3620960000000 1.0   0.02
Li     1  0.3508990000000  0.3620960000000  0.0582270000000 1.0   0.02
Li     1  0.1219830000000 -0.3333330000000  0.3333330000000 1.0   0.03
Li     1 -0.2895340000000  0.0000000000000  0.0000000000000 1.0  -0.06
O      2  0.1368980000000  0.2505430000000  0.0222960000000 1.0   0.34
O      2  0.1368980000000 -0.0222960000000  0.2282470000000 1.0   0.34
O      2  0.1368980000000 -0.2282470000000 -0.2505430000000 1.0   0.34
O      2 -0.0500270000000  0.0805040000000 -0.3781610000000 1.0   0.45
O      2 -0.0500270000000  0.3781610000000  0.4586650000000 1.0   0.45
O      2 -0.0500270000000 -0.4586650000000 -0.0805040000000 1.0   0.45
S      3 -0.3171340000000 -0.0077390000000  0.2930040000000 1.0   0.28
S      3 -0.3171340000000 -0.2930040000000 -0.3007430000000 1.0   0.28
S      3 -0.3171340000000  0.3007430000000  0.0077390000000 1.0   0.28
S      3  0.4048190000000 -0.3333330000000  0.3333330000000 1.0   0.04
Fe     4 -0.0518790000000  0.2845100000000 -0.1084590000000 1.0   3.64
Fe     4 -0.0518790000000  0.1084590000000  0.3929700000000 1.0   3.64
Fe     4 -0.0518790000000 -0.3929700000000 -0.2845100000000 1.0   3.64
Fe     4  0.1171730000000  0.0000000000000  0.0000000000000 1.0   3.36
END
