TITL LFSO-Li4Fe3S2O3-201001-041102-61a082 -0.0414 437.652029 -1.06228751E+004 23.9002 24.2596 24 (Cc) n - 1
REM
REM Run started: Thu, 01 Oct 2020 15:38:21 +0100 in /lustre/scratch/uccabz1/launch_tmp/launcher_2020-10-01-03-11-01-149220
REM CASTEP 20.1 from code version af48c487+ pr-geom-scf-spinfix Tue Jun 2 15:39:59 2020 +0100
REM Functional Perdew Burke Ernzerhof Relativity Koelling-Harmon Dispersion off
REM Cut-off 340.0000 eV Grid scale 1.7500 Gmax 16.5316 1/A FBSC none
REM MP grid 3 2 2 Offset 0.000 0.000 0.000 No. kpts 5 Spacing 0.07
REM Total runtime: 30022 s
REM Overall efficiency: 73.4545 %
REM
REM
REM
REM compiler GCC version 4.9.2
REM options -cpp -iprefix /lustre/shared/ucl/apps/gcc/4.9.2/bin/../lib/gcc/x86_64-unknown-linux-gnu/4.9.2/ -mtune=corei7 -march=x86-64 -g -Og
REM COMMAND_LINE
REM seed 1912605964 1028919862 -29345118 1354155891 738870091 -1436847549 -1793773358 349672326 -1679760634 -1581762556 388094974 -993416751
REM
REM S 3|1.8|5|6|7|30:31:32(qc=5)
REM O 2|1.5|12|13|15|20:21(qc=5)
REM Li 1|1.3|8|9|10|10U:20(qc=5)
REM Fe 3|2.2|2.0|1.0|8|9|10|40:41:32(qc=5)
REM 
CELL 1.54180    6.06876    8.86118    8.86118   77.40598   74.69629   74.69629
LATT -1
SFAC Li O  S  Fe 
Li     1 -0.1426220000000  0.0489040000000  0.2593570000000 1.0   0.01
Li     1  0.3573780000000  0.2593570000000  0.0489040000000 1.0   0.01
Li     1 -0.3907660000000 -0.3227060000000  0.3033610000000 1.0  -0.02
Li     1  0.1092340000000  0.3033610000000 -0.3227060000000 1.0  -0.02
Li     1  0.4214280000000  0.3842290000000  0.3029170000000 1.0  -0.07
Li     1 -0.0785720000000  0.3029170000000  0.3842290000000 1.0  -0.07
Li     1  0.2694220000000 -0.3301870000000  0.1200340000000 1.0   0.03
Li     1 -0.2305780000000  0.1200340000000 -0.3301870000000 1.0   0.03
O      2  0.5405890000000 -0.3123660000000 -0.4637510000000 1.0   0.37
O      2  0.0405890000000 -0.4637510000000 -0.3123660000000 1.0   0.37
O      2  0.3458460000000 -0.4096430000000  0.3184570000000 1.0   0.29
O      2 -0.1541540000000  0.3184570000000 -0.4096430000000 1.0   0.29
O      2  0.0584380000000  0.2165520000000  0.1891040000000 1.0   0.23
O      2 -0.4415620000000  0.1891040000000  0.2165520000000 1.0   0.23
S      3 -0.1083320000000 -0.2752810000000  0.0688010000000 1.0   0.30
S      3  0.3916680000000  0.0688010000000 -0.2752810000000 1.0   0.30
S      3  0.5520290000000  0.4811080000000 -0.0656500000000 1.0   0.26
S      3  0.0520290000000 -0.0656500000000  0.4811080000000 1.0   0.26
Fe     4 -0.2801820000000 -0.4859390000000 -0.3442920000000 1.0   3.74
Fe     4  0.2198180000000 -0.3442920000000 -0.4859390000000 1.0   3.74
Fe     4 -0.1140480000000 -0.4196850000000 -0.1009790000000 1.0   3.50
Fe     4  0.3859520000000 -0.1009790000000 -0.4196850000000 1.0   3.50
Fe     4 -0.1821350000000  0.3226980000000  0.0843100000000 1.0   3.33
Fe     4  0.3178650000000  0.0843100000000  0.3226980000000 1.0   3.33
END
