TITL LFSO-LiFeSO-200909-035851-916deb 0.0277 286.732506 -7.22061808E+003 -1.70467 4.51086 16 (R3) n - 1
REM
REM Run started: Wed, 09 Sep 2020 07:24:59 +0100 in /lustre/scratch/uccabz1/launch_tmp/launcher_2020-09-09-02-58-50-155986
REM CASTEP 20.1 from code version af48c487+ pr-geom-scf-spinfix Tue Jun 2 15:39:59 2020 +0100
REM Functional Perdew Burke Ernzerhof Relativity Koelling-Harmon Dispersion off
REM Cut-off 340.0000 eV Grid scale 1.7500 Gmax 16.5316 1/A FBSC none
REM MP grid 3 3 3 Offset 0.000 0.000 0.000 No. kpts 6 Spacing 0.07
REM Total runtime: 13668.2 s
REM Overall efficiency: 98.1667 %
REM
REM
REM
REM compiler GCC version 4.9.2
REM options -cpp -iprefix /lustre/shared/ucl/apps/gcc/4.9.2/bin/../lib/gcc/x86_64-unknown-linux-gnu/4.9.2/ -mtune=corei7 -march=x86-64 -g -Og
REM COMMAND_LINE
REM seed -886282307 1318444296 -1653448672 -649921300 112853125 -401631772 475233910 -1214211146 -1139949658 1759146265 -1360863887 -1519228609
REM
REM S 3|1.8|5|6|7|30:31:32(qc=5)
REM O 2|1.5|12|13|15|20:21(qc=5)
REM Li 1|1.3|8|9|10|10U:20(qc=5)
REM Fe 3|2.2|2.0|1.0|8|9|10|40:41:32(qc=5)
REM 
CELL 1.54180    7.45578    7.45578    7.34877   59.51707   59.51707   60.00000
LATT -1
SFAC Li O  S  Fe 
Li     1  0.2723040000000 -0.1231910000000 -0.4716750000000 1.0  -0.00
Li     1 -0.1231910000000  0.3225620000000 -0.4716750000000 1.0  -0.00
Li     1  0.3225620000000  0.2723040000000 -0.4716750000000 1.0  -0.00
Li     1 -0.2069540000000 -0.2069540000000 -0.3791390000000 1.0  -0.01
O      2  0.4159900000000  0.4031750000000  0.2125720000000 1.0  -0.04
O      2  0.4031750000000 -0.0317370000000  0.2125720000000 1.0  -0.04
O      2 -0.0317370000000  0.4159900000000  0.2125720000000 1.0  -0.04
O      2  0.1654270000000  0.1654270000000 -0.4962820000000 1.0  -0.10
S      3 -0.1319530000000 -0.1271490000000 -0.1566010000000 1.0  -0.01
S      3 -0.1271490000000  0.4157030000000 -0.1566010000000 1.0  -0.01
S      3  0.4157030000000 -0.1319530000000 -0.1566010000000 1.0  -0.01
S      3  0.4065010000000  0.4065010000000 -0.2195020000000 1.0  -0.01
Fe     4 -0.4731450000000 -0.4790110000000 -0.0745340000000 1.0   0.43
Fe     4 -0.4790110000000  0.0266900000000 -0.0745340000000 1.0   0.43
Fe     4  0.0266900000000 -0.4731450000000 -0.0745340000000 1.0   0.43
Fe     4  0.2688880000000  0.2688880000000  0.1933350000000 1.0  -2.71
END
