TITL LFSO-Li4Fe2SO3-200910-193508-a22f98 0.0557 340.691724 -8.28864056E+003 16.0000 16.4164 20 (P21) n - 1
REM
REM Run started: Fri, 11 Sep 2020 07:28:46 +0100 in /lustre/scratch/uccabz1/launch_tmp/launcher_2020-09-10-18-35-07-076660
REM CASTEP 20.1 from code version af48c487+ pr-geom-scf-spinfix Tue Jun 2 15:39:59 2020 +0100
REM Functional Perdew Burke Ernzerhof Relativity Koelling-Harmon Dispersion off
REM Cut-off 340.0000 eV Grid scale 1.7500 Gmax 16.5316 1/A FBSC none
REM MP grid 2 3 3 Offset 0.000 0.000 0.000 No. kpts 6 Spacing 0.07
REM Total runtime: 47356 s
REM Overall efficiency: 96.3333 %
REM
REM
REM
REM compiler GCC version 4.9.2
REM options -cpp -iprefix /lustre/shared/ucl/apps/gcc/4.9.2/bin/../lib/gcc/x86_64-unknown-linux-gnu/4.9.2/ -mtune=corei7 -march=x86-64 -g -Og
REM COMMAND_LINE
REM seed -1151335710 -2065517473 -320702012 -1459028690 1305501776 1215073522 219735949 1991189840 767901908 -1305392422 925952583 1590926990
REM
REM S 3|1.8|5|6|7|30:31:32(qc=5)
REM O 2|1.5|12|13|15|20:21(qc=5)
REM Li 1|1.3|8|9|10|10U:20(qc=5)
REM Fe 3|2.2|2.0|1.0|8|9|10|40:41:32(qc=5)
REM 
CELL 1.54180   10.54516    5.26447    7.50396   90.00000  125.13180   90.00000
LATT -1
SFAC Li O  S  Fe 
Li     1 -0.5577800000000  0.0829150000000 -0.3881430000000 1.0  -0.05
Li     1  0.5577800000000 -0.4170850000000  0.3881430000000 1.0  -0.05
Li     1  0.3901360000000 -0.5136270000000 -0.0803460000000 1.0  -0.04
Li     1 -0.3901360000000 -0.0136270000000  0.0803460000000 1.0  -0.04
Li     1  0.2425190000000 -0.1599200000000  0.1470520000000 1.0  -0.06
Li     1 -0.2425190000000  0.3400800000000 -0.1470520000000 1.0  -0.06
Li     1 -0.1075340000000 -0.0469190000000  0.4881060000000 1.0  -0.06
Li     1  0.1075340000000 -0.5469190000000 -0.4881060000000 1.0  -0.06
O      2  0.3055480000000  0.3092430000000 -0.3560010000000 1.0   0.24
O      2 -0.3055480000000 -0.1907570000000  0.3560010000000 1.0   0.24
O      2 -0.4321110000000  0.3319120000000 -0.4085460000000 1.0   0.24
O      2  0.4321110000000 -0.1680880000000  0.4085460000000 1.0   0.24
O      2  0.4509900000000 -0.1827470000000 -0.1818590000000 1.0   0.35
O      2 -0.4509900000000  0.3172530000000  0.1818590000000 1.0   0.35
S      3 -0.1198940000000  0.2440300000000  0.2183090000000 1.0   0.14
S      3  0.1198940000000 -0.2559700000000 -0.2183090000000 1.0   0.14
Fe     4 -0.5743960000000  0.5826300000000 -0.4014330000000 1.0   3.69
Fe     4  0.5743960000000  0.0826300000000  0.4014330000000 1.0   3.69
Fe     4 -0.2667110000000  0.4974240000000  0.2672660000000 1.0   3.55
Fe     4  0.2667110000000 -0.0025760000000 -0.2672660000000 1.0   3.55
END
