TITL LFSO-Li2Fe2SO2-200912-232945-9f8a59 0.0407 249.808582 -6.61264588E+003 5.66855 13.5568 14 (P3) n - 1
REM
REM Run started: Sun, 13 Sep 2020 05:00:01 +0100 in /lustre/scratch/uccabz1/launch_tmp/launcher_2020-09-12-22-29-43-152969
REM CASTEP 20.1 from code version af48c487+ pr-geom-scf-spinfix Tue Jun 2 15:39:59 2020 +0100
REM Functional Perdew Burke Ernzerhof Relativity Koelling-Harmon Dispersion off
REM Cut-off 340.0000 eV Grid scale 1.7500 Gmax 16.5316 1/A FBSC none
REM MP grid 3 3 2 Offset 0.000 0.000 0.000 No. kpts 5 Spacing 0.07
REM Total runtime: 20443.9 s
REM Overall efficiency: 90 %
REM
REM
REM
REM compiler GCC version 4.9.2
REM options -cpp -iprefix /lustre/shared/ucl/apps/gcc/4.9.2/bin/../lib/gcc/x86_64-unknown-linux-gnu/4.9.2/ -mtune=corei7 -march=x86-64 -g -Og
REM COMMAND_LINE
REM seed 1426588640 -80933429 -1009247080 1997795677 -461162861 554498807 1006769324 1882368423 -2013640467 -1362110099 -1221355879 1970776934
REM
REM S 3|1.8|5|6|7|30:31:32(qc=5)
REM O 2|1.5|12|13|15|20:21(qc=5)
REM Li 1|1.3|8|9|10|10U:20(qc=5)
REM Fe 3|2.2|2.0|1.0|8|9|10|40:41:32(qc=5)
REM 
CELL 1.54180    5.64699    5.64699    9.04570   90.00000   90.00000  120.00000
LATT -1
SFAC Li O  S  Fe 
Li     1 -0.2569740000000 -0.3375490000000 -0.3223410000000 1.0  -0.01
Li     1 -0.0805750000000  0.2569740000000 -0.3223410000000 1.0  -0.01
Li     1  0.3375490000000  0.0805750000000 -0.3223410000000 1.0  -0.01
Li     1  0.3333330000000 -0.3333330000000  0.1234720000000 1.0   0.03
O      2  0.2938900000000  0.3211030000000  0.1909600000000 1.0   0.02
O      2  0.0272130000000 -0.2938900000000  0.1909600000000 1.0   0.02
O      2 -0.3211030000000 -0.0272130000000  0.1909600000000 1.0   0.02
O      2 -0.3333330000000  0.3333330000000  0.5545400000000 1.0   0.10
S      3  0.0000000000000 -0.0000000000000 -0.1368800000000 1.0  -0.12
S      3  0.0000000000000 -0.0000000000000 -0.5009760000000 1.0   0.14
Fe     4 -0.3100730000000  0.0987080000000  0.3711850000000 1.0   3.02
Fe     4  0.4087820000000  0.3100730000000  0.3711850000000 1.0   3.02
Fe     4 -0.0987080000000 -0.4087820000000  0.3711850000000 1.0   3.02
Fe     4  0.0000000000000 -0.0000000000000  0.1191560000000 1.0  -3.55
END
