TITL LFSO-Li3Fe3S4O2-200929-151047-2dc343 1.4348 724.801191 -5.28210403E+003 -2.03908 4.99094 12 (Cmm2) n - 1
REM
REM Run started: Tue, 29 Sep 2020 21:56:16 +0100 in /lustre/scratch/uccabz1/launch_tmp/launcher_2020-09-29-14-10-45-419412
REM CASTEP 20.1 from code version af48c487+ pr-geom-scf-spinfix Tue Jun 2 15:39:59 2020 +0100
REM Functional Perdew Burke Ernzerhof Relativity Koelling-Harmon Dispersion off
REM Cut-off 340.0000 eV Grid scale 1.7500 Gmax 16.5316 1/A FBSC none
REM MP grid 5 2 2 Offset 0.000 0.000 0.000 No. kpts 6 Spacing 0.07
REM Total runtime: 33824.6 s
REM Overall efficiency: 96.1667 %
REM
REM
REM
REM compiler GCC version 4.9.2
REM options -cpp -iprefix /lustre/shared/ucl/apps/gcc/4.9.2/bin/../lib/gcc/x86_64-unknown-linux-gnu/4.9.2/ -mtune=corei7 -march=x86-64 -g -Og
REM COMMAND_LINE
REM seed -2133881827 1758159181 -1090256026 1537547151 -925050119 1550830547 -506295338 750458973 1528711591 724065279 -899934642 -615279022
REM
REM S 3|1.8|5|6|7|30:31:32(qc=5)
REM O 2|1.5|12|13|15|20:21(qc=5)
REM Li 1|1.3|8|9|10|10U:20(qc=5)
REM Fe 3|2.2|2.0|1.0|8|9|10|40:41:32(qc=5)
REM 
CELL 1.54180    3.20792   21.15119   21.15119  149.66598   90.00000   90.00000
LATT -1
SFAC Li O  S  Fe 
Li     1  0.4698210000000 -0.3473900000000 -0.3473900000000 1.0  -0.00
Li     1  0.4698210000000  0.3473900000000  0.3473900000000 1.0  -0.00
Li     1 -0.0542790000000 -0.5000000000000 -0.5000000000000 1.0   0.00
O      2 -0.5507340000000 -0.4791980000000  0.4791980000000 1.0  -0.00
O      2 -0.5507340000000  0.4791980000000 -0.4791980000000 1.0  -0.00
S      3  0.4829030000000  0.1946250000000  0.1195610000000 1.0  -0.05
S      3  0.4829030000000 -0.1946250000000 -0.1195610000000 1.0  -0.05
S      3  0.4829030000000  0.1195610000000  0.1946250000000 1.0  -0.05
S      3  0.4829030000000 -0.1195610000000 -0.1946250000000 1.0  -0.05
Fe     4 -0.0226630000000 -0.1600170000000 -0.1600170000000 1.0  -1.50
Fe     4 -0.0226630000000  0.1600170000000  0.1600170000000 1.0  -1.50
Fe     4 -0.5285590000000  0.0000000000000 -0.0000000000000 1.0   1.15
END
