TITL LFSO-Li4Fe2S2O3-200911-131459-4bff83 -0.0226 200.779625 -4.44508352E+003 4.23907 4.68430 11 (P2) n - 1
REM
REM Run started: Fri, 11 Sep 2020 17:35:38 +0100 in /lustre/scratch/uccabz1/launch_tmp/launcher_2020-09-11-12-14-57-789030
REM CASTEP 20.1 from code version af48c487+ pr-geom-scf-spinfix Tue Jun 2 15:39:59 2020 +0100
REM Functional Perdew Burke Ernzerhof Relativity Koelling-Harmon Dispersion off
REM Cut-off 340.0000 eV Grid scale 1.7500 Gmax 16.5316 1/A FBSC none
REM MP grid 6 3 3 Offset 0.000 0.000 0.000 No. kpts 18 Spacing 0.07
REM Total runtime: 18168.9 s
REM Overall efficiency: 96.9 %
REM
REM
REM
REM compiler GCC version 4.9.2
REM options -cpp -iprefix /lustre/shared/ucl/apps/gcc/4.9.2/bin/../lib/gcc/x86_64-unknown-linux-gnu/4.9.2/ -mtune=corei7 -march=x86-64 -g -Og
REM COMMAND_LINE
REM seed -939390138 968071840 -925678297 1244962200 1541894730 2038718223 -448623825 -13213982 1148467351 884813915 981295303 35556155
REM
REM S 3|1.8|5|6|7|30:31:32(qc=5)
REM O 2|1.5|12|13|15|20:21(qc=5)
REM Li 1|1.3|8|9|10|10U:20(qc=5)
REM Fe 3|2.2|2.0|1.0|8|9|10|40:41:32(qc=5)
REM 
CELL 1.54180    4.76426    9.89909    7.20609   90.00000   90.00000  143.78723
LATT -1
SFAC Li O  S  Fe 
Li     1 -0.0246860000000 -0.3591210000000 -0.1381860000000 1.0  -0.03
Li     1  0.0246860000000  0.3591210000000 -0.1381860000000 1.0  -0.03
Li     1 -0.0980440000000 -0.2668430000000  0.2382590000000 1.0  -0.00
Li     1  0.0980440000000  0.2668430000000  0.2382590000000 1.0  -0.00
O      2  0.3311750000000  0.4963550000000  0.0920320000000 1.0   0.00
O      2 -0.3311750000000 -0.4963550000000  0.0920320000000 1.0   0.00
O      2 -0.5000000000000  0.0000000000000  0.3699080000000 1.0   0.18
S      3  0.4469590000000  0.2791310000000 -0.3369730000000 1.0   0.08
S      3 -0.4469590000000 -0.2791310000000 -0.3369730000000 1.0   0.08
Fe     4  0.2853490000000  0.0103050000000 -0.4227780000000 1.0   1.98
Fe     4 -0.2853490000000 -0.0103050000000 -0.4227780000000 1.0   1.98
END
