TITL LFSO-Li4Fe3S2O3-201001-160431-8a9df6 0.0029 199.943286 -5.31091299E+003 -9.92234 10.1304 12 (Cm) n - 1
REM
REM Run started: Thu, 01 Oct 2020 19:59:00 +0100 in /lustre/scratch/uccabz1/launch_tmp/launcher_2020-10-01-15-04-29-844011
REM CASTEP 20.1 from code version af48c487+ pr-geom-scf-spinfix Tue Jun 2 15:39:59 2020 +0100
REM Functional Perdew Burke Ernzerhof Relativity Koelling-Harmon Dispersion off
REM Cut-off 340.0000 eV Grid scale 1.7500 Gmax 16.5316 1/A FBSC none
REM MP grid 4 3 4 Offset 0.000 0.000 0.000 No. kpts 24 Spacing 0.07
REM Total runtime: 14183.5 s
REM Overall efficiency: 92.7 %
REM
REM
REM
REM compiler GCC version 4.9.2
REM options -cpp -iprefix /lustre/shared/ucl/apps/gcc/4.9.2/bin/../lib/gcc/x86_64-unknown-linux-gnu/4.9.2/ -mtune=corei7 -march=x86-64 -g -Og
REM COMMAND_LINE
REM seed -1137445514 568041024 1936714377 420047000 2049855913 1423777866 -1097410089 315399523 -725446924 -1162048600 703046107 72504522
REM
REM S 3|1.8|5|6|7|30:31:32(qc=5)
REM O 2|1.5|12|13|15|20:21(qc=5)
REM Li 1|1.3|8|9|10|10U:20(qc=5)
REM Fe 3|2.2|2.0|1.0|8|9|10|40:41:32(qc=5)
REM 
CELL 1.54180    5.71466    7.76983    6.84288  124.59213  119.64400   90.00000
LATT -1
SFAC Li O  S  Fe 
Li     1  0.1674360000000 -0.3331060000000 -0.3545560000000 1.0   0.01
Li     1  0.1674360000000 -0.0214490000000 -0.3545560000000 1.0   0.01
Li     1 -0.4250040000000 -0.0425490000000  0.2469900000000 1.0   0.00
Li     1 -0.4250040000000  0.2895390000000  0.2469900000000 1.0   0.00
O      2 -0.2029300000000 -0.4041220000000 -0.4634630000000 1.0  -0.21
O      2 -0.2029300000000 -0.0593410000000 -0.4634630000000 1.0  -0.21
O      2  0.5287830000000 -0.0249100000000 -0.0498210000000 1.0  -0.13
S      3  0.1794710000000 -0.1548680000000  0.2438810000000 1.0  -0.11
S      3  0.1794710000000  0.3987490000000  0.2438810000000 1.0  -0.11
Fe     4 -0.2373910000000 -0.2266250000000 -0.1483890000000 1.0  -3.36
Fe     4 -0.2373910000000  0.0782360000000 -0.1483890000000 1.0  -3.36
Fe     4  0.5038070000000 -0.3166850000000 -0.6333690000000 1.0  -2.45
END
