TITL LFSO-LiFe3S3O2-200909-145839-b219ee -0.0243 156.492175 -4.57674227E+003 -0.178303E-01 0.224777E-01 9 (C2) n - 1
REM
REM Run started: Wed, 09 Sep 2020 21:41:33 +0100 in /lustre/scratch/uccabz1/launch_tmp/launcher_2020-09-09-13-58-36-585157
REM CASTEP 20.1 from code version af48c487+ pr-geom-scf-spinfix Tue Jun 2 15:39:59 2020 +0100
REM Functional Perdew Burke Ernzerhof Relativity Koelling-Harmon Dispersion off
REM Cut-off 340.0000 eV Grid scale 1.7500 Gmax 16.5316 1/A FBSC none
REM MP grid 5 3 2 Offset 0.000 0.000 0.000 No. kpts 13 Spacing 0.07
REM Total runtime: 26839.9 s
REM Overall efficiency: 90.1667 %
REM
REM
REM
REM compiler GCC version 4.9.2
REM options -cpp -iprefix /lustre/shared/ucl/apps/gcc/4.9.2/bin/../lib/gcc/x86_64-unknown-linux-gnu/4.9.2/ -mtune=corei7 -march=x86-64 -g -Og
REM COMMAND_LINE
REM seed -999761911 -1152763873 -1545152800 405177944 -1043367211 -1267188188 1184769060 1887659204 -1336783285 -1285953113 12599925 -2053234032
REM
REM S 3|1.8|5|6|7|30:31:32(qc=5)
REM O 2|1.5|12|13|15|20:21(qc=5)
REM Li 1|1.3|8|9|10|10U:20(qc=5)
REM Fe 3|2.2|2.0|1.0|8|9|10|40:41:32(qc=5)
REM 
CELL 1.54180    3.71859    6.70127    8.46526   66.68349  103.49138  126.11598
LATT -1
SFAC Li O  S  Fe 
Li     1  0.0000000000000  0.1048860000000 -0.2097710000000 1.0   0.00
O      2 -0.4005400000000 -0.4387460000000  0.3837830000000 1.0  -0.00
O      2  0.4005400000000  0.0549630000000  0.3837830000000 1.0  -0.00
S      3  0.0032410000000 -0.2659370000000  0.0541580000000 1.0   0.00
S      3 -0.0032410000000  0.2117800000000  0.0541580000000 1.0   0.00
S      3  0.5000000000000 -0.3347970000000 -0.3304050000000 1.0  -0.00
Fe     4  0.4083480000000  0.0655300000000  0.1788750000000 1.0  -0.01
Fe     4 -0.4083480000000 -0.2444050000000  0.1788750000000 1.0  -0.01
Fe     4  0.0000000000000 -0.2544200000000 -0.4911590000000 1.0  -0.01
END
