TITL LFSO-Li3Fe3S4O2-201002-140320-67ee74 0.0273 236.172654 -5.27949544E+003 7.48563 9.14809 12 (P1) n - 1
REM
REM Run started: Fri, 02 Oct 2020 16:09:06 +0100 in /scratch/scratch/mmm0366/launch_tmp/launcher_2020-10-02-13-03-18-980676
REM CASTEP 19.11| from code version Version unavailable
REM Functional Perdew Burke Ernzerhof Relativity Koelling-Harmon Dispersion off
REM Cut-off 340.0000 eV Grid scale 1.7500 Gmax 16.5316 1/A FBSC none
REM MP grid 3 3 3 Offset 0.000 0.000 0.000 No. kpts 6 Spacing 0.07
REM Total runtime: 7607.68 s
REM Overall efficiency: 94.8889 %
REM
REM
REM
REM compiler GCC version 4.9.2
REM options -cpp -iprefix /scratch/UCL/applications/gcc/4.9.2/bin/../lib/gcc/x86_64-unknown-linux-gnu/4.9.2/ -mtune=corei7 -march=x86-64 -g -O2
REM COMMAND_LINE
REM seed 1667592495 1319120882 761754700 -1083914204 -1463005316 -458356760 -381858061 1821430679 757748894 -193553210 -817196122 168852562
REM
REM S 3|1.8|5|6|7|30:31:32(qc=5)
REM O 2|1.5|12|13|15|20:21(qc=5)
REM Li 1|1.3|8|9|10|10U:20(qc=5)
REM Fe 3|2.2|2.0|1.0|8|9|10|40:41:32(qc=5)
REM 
CELL 1.54180    6.21158    6.21158    6.21158   95.46470   95.46470   95.46470
LATT -1
SFAC Li O  S  Fe 
Li     1 -0.5676690000000  0.4611860000000  0.1193120000000 1.0   0.03
Li     1  0.4611860000000  0.1193120000000 -0.5676690000000 1.0   0.03
Li     1  0.1193120000000 -0.5676690000000  0.4611860000000 1.0   0.03
O      2  0.0769860000000  0.0769860000000  0.0769860000000 1.0   0.12
O      2  0.3477140000000  0.3477140000000  0.3477140000000 1.0  -0.64
S      3 -0.1736980000000  0.4652200000000  0.1840920000000 1.0   0.07
S      3  0.4652200000000  0.1840920000000 -0.1736980000000 1.0   0.07
S      3  0.1840920000000 -0.1736980000000  0.4652200000000 1.0   0.07
S      3 -0.1980870000000 -0.1980870000000 -0.1980870000000 1.0  -0.00
Fe     4 -0.2020360000000  0.1413950000000 -0.0276010000000 1.0   2.57
Fe     4  0.1413950000000 -0.0276010000000 -0.2020360000000 1.0   2.57
Fe     4 -0.0276010000000 -0.2020360000000  0.1413950000000 1.0   2.57
END
