TITL LFSO-Li3Fe3S4O2-200929-230512-86adc6 -0.5894 391.832276 -1.05641505E+004 4.10368 7.99556 24 (Cc) n - 1
REM
REM Run started: Wed, 30 Sep 2020 13:59:05 +0100 in /lustre/scratch/uccabz1/launch_tmp/launcher_2020-09-30-08-29-03-865728
REM CASTEP 20.1 from code version af48c487+ pr-geom-scf-spinfix Tue Jun 2 15:39:59 2020 +0100
REM Functional Perdew Burke Ernzerhof Relativity Koelling-Harmon Dispersion off
REM Cut-off 340.0000 eV Grid scale 1.7500 Gmax 16.5316 1/A FBSC none
REM MP grid 3 3 2 Offset 0.000 0.000 0.000 No. kpts 6 Spacing 0.07
REM Total runtime: 57897.3 s
REM Overall efficiency: 96.5385 %
REM
REM
REM
REM compiler GCC version 4.9.2
REM options -cpp -iprefix /scratch/UCL/applications/gcc/4.9.2/bin/../lib/gcc/x86_64-unknown-linux-gnu/4.9.2/ -mtune=corei7 -march=x86-64 -g -O2
REM COMMAND_LINE
REM seed -438027638 758281937 -1917875402 -1995095928 -265135225 -1289706211 -1436997054 965857012 -370108541 2037909413 37737622 -1785216052
REM
REM S 3|1.8|5|6|7|30:31:32(qc=5)
REM O 2|1.5|12|13|15|20:21(qc=5)
REM Li 1|1.3|8|9|10|10U:20(qc=5)
REM Fe 3|2.2|2.0|1.0|8|9|10|40:41:32(qc=5)
REM 
CELL 1.54180    6.91462    6.91462    9.68397   90.82043   90.82043  122.15161
LATT -1
SFAC Li O  S  Fe 
Li     1 -0.3111660000000  0.2092960000000  0.3628320000000 1.0   0.02
Li     1  0.2092960000000 -0.3111660000000 -0.1371680000000 1.0   0.02
Li     1 -0.3188880000000 -0.5639970000000  0.0667240000000 1.0  -0.02
Li     1 -0.5639970000000 -0.3188880000000 -0.4332760000000 1.0  -0.02
Li     1 -0.2220350000000 -0.1712130000000  0.2854300000000 1.0   0.01
Li     1 -0.1712130000000 -0.2220350000000 -0.2145700000000 1.0   0.01
O      2 -0.2111340000000  0.2740950000000  0.1763960000000 1.0   0.10
O      2  0.2740950000000 -0.2111340000000 -0.3236040000000 1.0   0.10
O      2  0.3856340000000 -0.0059470000000 -0.0519040000000 1.0   0.01
O      2 -0.0059470000000  0.3856340000000  0.4480960000000 1.0   0.01
S      3 -0.1835460000000 -0.1636100000000  0.0312080000000 1.0  -0.01
S      3 -0.1636100000000 -0.1835460000000 -0.4687920000000 1.0  -0.01
S      3  0.4565050000000  0.2429950000000 -0.4692780000000 1.0   0.00
S      3  0.2429950000000  0.4565050000000  0.0307220000000 1.0   0.00
S      3 -0.2159970000000  0.3867200000000 -0.2159460000000 1.0  -0.01
S      3  0.3867200000000 -0.2159970000000  0.2840540000000 1.0  -0.01
S      3  0.2283460000000  0.2023720000000  0.2685380000000 1.0   0.04
S      3  0.2023720000000  0.2283460000000 -0.2314620000000 1.0   0.04
Fe     4  0.1205970000000  0.1949810000000  0.4827740000000 1.0   0.14
Fe     4  0.1949810000000  0.1205970000000 -0.0172260000000 1.0   0.14
Fe     4 -0.0209270000000 -0.4179320000000 -0.4135120000000 1.0  -0.04
Fe     4 -0.4179320000000 -0.0209270000000  0.0864880000000 1.0  -0.04
Fe     4 -0.5731620000000  0.0985780000000 -0.2657010000000 1.0   1.86
Fe     4  0.0985780000000 -0.5731620000000  0.2342990000000 1.0   1.86
END
