TITL LFSO-Li5FeSO3-200910-051418-3c5921 0.0167 112.333168 -3.48158615E+003 3.24106 3.38633 10 (C2) n - 1
REM
REM Run started: Thu, 10 Sep 2020 06:15:01 +0100 in /lustre/scratch/uccabz1/launch_tmp/launcher_2020-09-10-04-14-16-302493
REM CASTEP 20.1 from code version af48c487+ pr-geom-scf-spinfix Tue Jun 2 15:39:59 2020 +0100
REM Functional Perdew Burke Ernzerhof Relativity Koelling-Harmon Dispersion off
REM Cut-off 340.0000 eV Grid scale 1.7500 Gmax 16.5316 1/A FBSC none
REM MP grid 4 3 3 Offset 0.000 0.000 0.000 No. kpts 12 Spacing 0.07
REM Total runtime: 3844.21 s
REM Overall efficiency: 93.3 %
REM
REM
REM
REM compiler GCC version 4.9.2
REM options -cpp -iprefix /lustre/shared/ucl/apps/gcc/4.9.2/bin/../lib/gcc/x86_64-unknown-linux-gnu/4.9.2/ -mtune=corei7 -march=x86-64 -g -Og
REM COMMAND_LINE
REM seed -1705662776 570084599 -1653696543 214128322 1591862728 -409386183 1699952201 -975043356 -965000836 714952811 264060548 -263808070
REM
REM S 3|1.8|5|6|7|30:31:32(qc=5)
REM O 2|1.5|12|13|15|20:21(qc=5)
REM Li 1|1.3|8|9|10|10U:20(qc=5)
REM Fe 3|2.2|2.0|1.0|8|9|10|40:41:32(qc=5)
REM 
CELL 1.54180    3.60908    5.63174    5.63174  100.98260   90.94728   90.94728
LATT -1
SFAC Li O  S  Fe 
Li     1  0.0203890000000 -0.4886830000000  0.0209360000000 1.0  -0.03
Li     1 -0.0203890000000 -0.0209360000000  0.4886830000000 1.0  -0.03
Li     1  0.6270720000000 -0.2171190000000 -0.1179370000000 1.0   0.00
Li     1 -0.6270720000000  0.1179370000000  0.2171190000000 1.0   0.00
Li     1  0.5000000000000  0.2498240000000 -0.2498240000000 1.0   0.04
O      2  0.5030040000000  0.4046700000000  0.0825300000000 1.0   0.13
O      2 -0.5030040000000 -0.0825300000000 -0.4046700000000 1.0   0.13
O      2  0.0000000000000 -0.1592140000000  0.1592140000000 1.0   0.06
S      3  0.0000000000000  0.4443850000000 -0.4443850000000 1.0   0.08
Fe     4 -0.5000000000000 -0.3577760000000  0.3577760000000 1.0   2.85
END
