TITL LFSO-Li3FeS2O-200911-174144-791c55 0.0371 118.580445 -2.50956133E+003 3.01842 3.24672 7 (Cm) n - 1
REM
REM Run started: Fri, 11 Sep 2020 20:07:13 +0100 in /lustre/scratch/uccabz1/launch_tmp/launcher_2020-09-11-16-41-42-963614
REM CASTEP 20.1 from code version af48c487+ pr-geom-scf-spinfix Tue Jun 2 15:39:59 2020 +0100
REM Functional Perdew Burke Ernzerhof Relativity Koelling-Harmon Dispersion off
REM Cut-off 340.0000 eV Grid scale 1.7500 Gmax 16.5316 1/A FBSC none
REM MP grid 9 3 3 Offset 0.000 0.000 0.000 No. kpts 30 Spacing 0.07
REM Total runtime: 10750 s
REM Overall efficiency: 95.3333 %
REM
REM
REM
REM compiler GCC version 4.9.2
REM options -cpp -iprefix /lustre/shared/ucl/apps/gcc/4.9.2/bin/../lib/gcc/x86_64-unknown-linux-gnu/4.9.2/ -mtune=corei7 -march=x86-64 -g -Og
REM COMMAND_LINE
REM seed -678388569 197946062 1183074660 -1540456700 -1873175508 2048627905 1835623451 -1814576834 -1582039810 -1312255889 -1261728788 -1535430941
REM
REM S 3|1.8|5|6|7|30:31:32(qc=5)
REM O 2|1.5|12|13|15|20:21(qc=5)
REM Li 1|1.3|8|9|10|10U:20(qc=5)
REM Fe 3|2.2|2.0|1.0|8|9|10|40:41:32(qc=5)
REM 
CELL 1.54180    3.80390   11.16231   11.16231   42.19210   30.02290   30.02290
LATT -1
SFAC Li O  S  Fe 
Li     1  0.1927190000000 -0.4793870000000  0.0621200000000 1.0  -0.01
Li     1  0.1927190000000  0.0621200000000 -0.4793870000000 1.0  -0.01
Li     1  1.4424960000000 -0.4840980000000 -0.4840980000000 1.0  -0.01
O      2 -0.4612030000000  0.2182040000000  0.2182040000000 1.0   0.15
S      3 -0.3722480000000 -0.1707840000000  0.3761720000000 1.0   0.14
S      3 -0.3722480000000  0.3761720000000 -0.1707840000000 1.0   0.14
Fe     4 -0.6193630000000  0.1570300000000  0.1570300000000 1.0   2.62
END
