TITL LFSO-Li4Fe2S2O3-200911-121737-73d40b -0.0031 200.340069 -4.44369340E+003 -4.47369 4.96668 11 (P3) n - 1
REM
REM Run started: Fri, 11 Sep 2020 13:19:25 +0100 in /lustre/scratch/uccabz1/launch_tmp/launcher_2020-09-11-11-17-35-911783
REM CASTEP 20.1 from code version af48c487+ pr-geom-scf-spinfix Tue Jun 2 15:39:59 2020 +0100
REM Functional Perdew Burke Ernzerhof Relativity Koelling-Harmon Dispersion off
REM Cut-off 340.0000 eV Grid scale 1.7500 Gmax 16.5316 1/A FBSC none
REM MP grid 4 4 2 Offset 0.000 0.000 0.000 No. kpts 16 Spacing 0.07
REM Total runtime: 5288.64 s
REM Overall efficiency: 97 %
REM
REM
REM
REM compiler GCC version 4.9.2
REM options -cpp -iprefix /lustre/shared/ucl/apps/gcc/4.9.2/bin/../lib/gcc/x86_64-unknown-linux-gnu/4.9.2/ -mtune=corei7 -march=x86-64 -g -Og
REM COMMAND_LINE
REM seed -737597023 -28140711 173452162 1131742125 912515085 -1531561833 1378722255 1122792286 -1120275874 -1808944610 -409645984 -1810391186
REM
REM S 3|1.8|5|6|7|30:31:32(qc=5)
REM O 2|1.5|12|13|15|20:21(qc=5)
REM Li 1|1.3|8|9|10|10U:20(qc=5)
REM Fe 3|2.2|2.0|1.0|8|9|10|40:41:32(qc=5)
REM 
CELL 1.54180    5.34094    5.34094    8.10965   90.00000   90.00000  120.00000
LATT -1
SFAC Li O  S  Fe 
Li     1 -0.3964170000000  0.0041550000000 -0.1121770000000 1.0  -0.02
Li     1  0.4005710000000  0.3964170000000 -0.1121770000000 1.0  -0.02
Li     1 -0.0041550000000 -0.4005710000000 -0.1121770000000 1.0  -0.02
Li     1  0.0000000000000 -0.0000000000000 -0.2718530000000 1.0  -0.00
O      2  0.2745660000000 -0.0078230000000 -0.0734420000000 1.0  -0.03
O      2 -0.2823880000000 -0.2745660000000 -0.0734420000000 1.0  -0.03
O      2  0.0078230000000  0.2823880000000 -0.0734420000000 1.0  -0.03
S      3 -0.3333330000000  0.3333330000000  0.3499920000000 1.0   0.01
S      3 -0.3333330000000  0.3333330000000 -0.3897590000000 1.0  -0.05
Fe     4  0.0000000000000 -0.0000000000000  0.0428530000000 1.0  -0.87
Fe     4  0.0000000000000 -0.0000000000000  0.3085220000000 1.0  -3.43
END
