TITL LFSO-Li4Fe2S2O3-200911-100223-99dcab 0.0404 135.187727 -4.44744255E+003 7.08354 7.15671 11 (Fmmm) n - 1
REM
REM Run started: Fri, 11 Sep 2020 10:59:03 +0100 in /lustre/scratch/uccabz1/launch_tmp/launcher_2020-09-11-09-02-20-823515
REM CASTEP 20.1 from code version af48c487+ pr-geom-scf-spinfix Tue Jun 2 15:39:59 2020 +0100
REM Functional Perdew Burke Ernzerhof Relativity Koelling-Harmon Dispersion off
REM Cut-off 340.0000 eV Grid scale 1.7500 Gmax 16.5316 1/A FBSC none
REM MP grid 4 4 3 Offset 0.000 0.000 0.000 No. kpts 16 Spacing 0.07
REM Total runtime: 3471.91 s
REM Overall efficiency: 93.8333 %
REM
REM
REM
REM compiler GCC version 4.9.2
REM options -cpp -iprefix /lustre/shared/ucl/apps/gcc/4.9.2/bin/../lib/gcc/x86_64-unknown-linux-gnu/4.9.2/ -mtune=corei7 -march=x86-64 -g -Og
REM COMMAND_LINE
REM seed -1279650369 538686537 471788725 689403507 -434854194 -755782979 -955886178 -932232059 -1157001001 -1628060147 -1205481379 -1555577939
REM
REM S 3|1.8|5|6|7|30:31:32(qc=5)
REM O 2|1.5|12|13|15|20:21(qc=5)
REM Li 1|1.3|8|9|10|10U:20(qc=5)
REM Fe 3|2.2|2.0|1.0|8|9|10|40:41:32(qc=5)
REM 
CELL 1.54180    5.18716    5.18716    6.18018  113.74664  113.74664   92.31728
LATT -1
SFAC Li O  S  Fe 
Li     1 -0.5741420000000  0.8313300000000  0.2546380000000 1.0  -0.04
Li     1  0.5766910000000 -0.8287800000000 -0.2546380000000 1.0  -0.04
Li     1  0.1686700000000 -0.4258580000000 -0.2546380000000 1.0  -0.04
Li     1 -0.1712200000000  0.4233090000000  0.2546380000000 1.0  -0.04
O      2 -0.4987550000000  0.0012450000000  0.0024890000000 1.0   0.27
O      2 -0.0012450000000 -0.5012450000000 -0.0024890000000 1.0   0.27
O      2 -0.5000000000000 -0.5000000000000  0.0000000000000 1.0   0.26
S      3  0.4984060000000 -0.4984060000000 -0.5000000000000 1.0   0.20
S      3  0.0015940000000  0.9984060000000  0.5000000000000 1.0   0.20
Fe     4 -0.2428390000000 -0.2428390000000  0.0000000000000 1.0   3.02
Fe     4  0.2428390000000  0.2428390000000  0.0000000000000 1.0   3.02
END
