TITL LFSO-Li4FeSO2-200910-075312-68e0c6 0.0699 216.267724 -5.68661666E+003 7.99999 8.32153 16 (Fdd2) n - 1
REM
REM Run started: Thu, 10 Sep 2020 09:25:43 +0100 in /lustre/scratch/uccabz1/launch_tmp/launcher_2020-09-10-06-53-09-885539
REM CASTEP 20.1 from code version af48c487+ pr-geom-scf-spinfix Tue Jun 2 15:39:59 2020 +0100
REM Functional Perdew Burke Ernzerhof Relativity Koelling-Harmon Dispersion off
REM Cut-off 340.0000 eV Grid scale 1.7500 Gmax 16.5316 1/A FBSC none
REM MP grid 3 3 3 Offset 0.000 0.000 0.000 No. kpts 8 Spacing 0.07
REM Total runtime: 5752.4 s
REM Overall efficiency: 96.3333 %
REM
REM
REM
REM compiler GCC version 4.9.2
REM options -cpp -iprefix /lustre/shared/ucl/apps/gcc/4.9.2/bin/../lib/gcc/x86_64-unknown-linux-gnu/4.9.2/ -mtune=corei7 -march=x86-64 -g -Og
REM COMMAND_LINE
REM seed 15598771 1253296636 -2146386421 1186762205 1779673484 841459772 -1103435982 955812402 -162570378 -10084632 1081276879 1944509024
REM
REM S 3|1.8|5|6|7|30:31:32(qc=5)
REM O 2|1.5|12|13|15|20:21(qc=5)
REM Li 1|1.3|8|9|10|10U:20(qc=5)
REM Fe 3|2.2|2.0|1.0|8|9|10|40:41:32(qc=5)
REM 
CELL 1.54180    6.16904    6.16904    8.46664  123.15249  123.15249   59.92784
LATT -1
SFAC Li O  S  Fe 
Li     1 -0.1408590000000  0.1859150000000 -0.3032580000000 1.0  -0.03
Li     1 -0.1859150000000  0.1408590000000  0.3032580000000 1.0  -0.03
Li     1  0.4123980000000  0.2391730000000 -0.1967420000000 1.0  -0.03
Li     1 -0.2391730000000 -0.4123980000000  0.1967420000000 1.0  -0.03
Li     1 -0.0149890000000 -0.4328690000000 -0.3986590000000 1.0  -0.01
Li     1  0.4328690000000  0.0149890000000  0.3986590000000 1.0  -0.01
Li     1 -0.3663300000000 -0.2842100000000 -0.1013410000000 1.0  -0.01
Li     1  0.2842100000000  0.3663300000000  0.1013410000000 1.0  -0.01
O      2  0.1735470000000  0.1439630000000 -0.4758140000000 1.0   0.23
O      2 -0.1439630000000 -0.1735470000000  0.4758140000000 1.0   0.23
O      2 -0.1006400000000  0.3697770000000 -0.0241860000000 1.0   0.23
O      2 -0.3697770000000  0.1006400000000  0.0241860000000 1.0   0.23
S      3 -0.4635590000000  0.4635590000000 -0.5000000000000 1.0   0.15
S      3  0.2864410000000 -0.2864410000000 -0.0000000000000 1.0   0.15
Fe     4 -0.0723760000000  0.0723760000000 -0.0000000000000 1.0   3.47
Fe     4  0.1776240000000 -0.1776240000000 -0.5000000000000 1.0   3.47
END
