TITL LFSO-LiFe3S4O-200909-111912-4b64bd -0.0188 204.601389 -4.44318875E+003 -8.83447 9.09574 9 (Pm) n - 1
REM
REM Run started: Wed, 09 Sep 2020 14:55:58 +0100 in /lustre/scratch/uccabz1/launch_tmp/launcher_2020-09-09-13-41-30-675259
REM CASTEP 20.1 from code version af48c487+ pr-geom-scf-spinfix Tue Jun 2 15:39:59 2020 +0100
REM Functional Perdew Burke Ernzerhof Relativity Koelling-Harmon Dispersion off
REM Cut-off 340.0000 eV Grid scale 1.7500 Gmax 16.5316 1/A FBSC none
REM MP grid 4 3 2 Offset 0.000 0.000 0.000 No. kpts 6 Spacing 0.07
REM Total runtime: 11543.7 s
REM Overall efficiency: 96 %
REM
REM
REM
REM compiler GCC version 4.9.2
REM options -cpp -iprefix /lustre/shared/ucl/apps/gcc/4.9.2/bin/../lib/gcc/x86_64-unknown-linux-gnu/4.9.2/ -mtune=corei7 -march=x86-64 -g -Og
REM COMMAND_LINE
REM seed -868556633 342995520 938698028 1566254248 -2067895823 -2091979480 1572022040 380376385 -1349662719 1043060398 1489631478 -1225989312
REM
REM S 3|1.8|5|6|7|30:31:32(qc=5)
REM O 2|1.5|12|13|15|20:21(qc=5)
REM Li 1|1.3|8|9|10|10U:20(qc=5)
REM Fe 3|2.2|2.0|1.0|8|9|10|40:41:32(qc=5)
REM 
CELL 1.54180    3.68774    5.88662    9.42677   90.00000   90.00000   91.10081
LATT -1
SFAC Li O  S  Fe 
Li     1 -0.1279740000000 -0.0764470000000  0.5000000000000 1.0   0.09
O      2  0.3718590000000 -0.0617980000000 -0.5000000000000 1.0  -0.18
S      3  0.3489030000000  0.3571650000000 -0.2765520000000 1.0  -0.24
S      3  0.3489030000000  0.3571650000000  0.2765520000000 1.0  -0.24
S      3 -0.1322230000000 -0.1865310000000  0.2414000000000 1.0  -0.23
S      3 -0.1322230000000 -0.1865310000000 -0.2414000000000 1.0  -0.23
Fe     4  0.3657250000000 -0.3019410000000  0.3443250000000 1.0  -2.37
Fe     4  0.3657250000000 -0.3019410000000 -0.3443250000000 1.0  -2.37
Fe     4  0.3741100000000  0.2706120000000  0.5000000000000 1.0  -3.07
END
