TITL LFSO-Li2Fe2S3O-200913-042445-beec1e 0.0144 130.256070 -3.47582301E+003 4.34116 4.79525 8 (Cm) n - 1
REM
REM Run started: Sun, 13 Sep 2020 05:18:10 +0100 in /lustre/scratch/uccabz1/launch_tmp/launcher_2020-09-13-03-24-43-708738
REM CASTEP 20.1 from code version af48c487+ pr-geom-scf-spinfix Tue Jun 2 15:39:59 2020 +0100
REM Functional Perdew Burke Ernzerhof Relativity Koelling-Harmon Dispersion off
REM Cut-off 340.0000 eV Grid scale 1.7500 Gmax 16.5316 1/A FBSC none
REM MP grid 4 3 3 Offset 0.000 0.000 0.000 No. kpts 12 Spacing 0.07
REM Total runtime: 3342.5 s
REM Overall efficiency: 84.125 %
REM
REM
REM
REM compiler GCC version 4.9.2
REM options -cpp -iprefix /lustre/shared/ucl/apps/gcc/4.9.2/bin/../lib/gcc/x86_64-unknown-linux-gnu/4.9.2/ -mtune=corei7 -march=x86-64 -g -Og
REM COMMAND_LINE
REM seed 1323363578 -19111465 -340256450 -1717741328 1471806561 -727732426 1119524698 -1846052561 -1671400533 1360382421 -740103805 -1364289408
REM
REM S 3|1.8|5|6|7|30:31:32(qc=5)
REM O 2|1.5|12|13|15|20:21(qc=5)
REM Li 1|1.3|8|9|10|10U:20(qc=5)
REM Fe 3|2.2|2.0|1.0|8|9|10|40:41:32(qc=5)
REM 
CELL 1.54180    4.74001    5.39108    5.39108   72.99768   83.08719   83.08719
LATT -1
SFAC Li O  S  Fe 
Li     1  0.3055590000000  0.3833630000000 -0.0158110000000 1.0  -0.05
Li     1  0.3055590000000 -0.0158110000000  0.3833630000000 1.0  -0.05
O      2  0.5910580000000  0.0774680000000  0.0774680000000 1.0   0.19
S      3 -0.2321620000000 -0.4035140000000 -0.0637900000000 1.0  -0.02
S      3 -0.2321620000000 -0.0637900000000 -0.4035140000000 1.0  -0.02
S      3  0.1254340000000 -0.5555200000000  0.4444800000000 1.0   0.02
Fe     4 -0.1687510000000 -0.2084260000000  0.2459520000000 1.0   2.14
Fe     4 -0.1687510000000  0.2459520000000 -0.2084260000000 1.0   2.14
END
