TITL LFSO-Li2Fe4S2O3-200912-075455-899b85 -0.0043 142.867343 -5.76895108E+003 8.71629 9.93993 11 (P-4) n - 1
REM
REM Run started: Sat, 12 Sep 2020 10:34:12 +0100 in /lustre/scratch/uccabz1/launch_tmp/launcher_2020-09-12-06-54-52-370889
REM CASTEP 20.1 from code version af48c487+ pr-geom-scf-spinfix Tue Jun 2 15:39:59 2020 +0100
REM Functional Perdew Burke Ernzerhof Relativity Koelling-Harmon Dispersion off
REM Cut-off 340.0000 eV Grid scale 1.7500 Gmax 16.5316 1/A FBSC none
REM MP grid 5 5 2 Offset 0.000 0.000 0.000 No. kpts 7 Spacing 0.07
REM Total runtime: 10413.6 s
REM Overall efficiency: 83.6154 %
REM
REM
REM
REM compiler GCC version 4.9.2
REM options -cpp -iprefix /lustre/shared/ucl/apps/gcc/4.9.2/bin/../lib/gcc/x86_64-unknown-linux-gnu/4.9.2/ -mtune=corei7 -march=x86-64 -g -Og
REM COMMAND_LINE
REM seed 509338686 -1864827593 -1717528202 -319226604 1087767922 -1867663505 1438474406 -1771740917 -215010159 -536865866 -818745194 -311232125
REM
REM S 3|1.8|5|6|7|30:31:32(qc=5)
REM O 2|1.5|12|13|15|20:21(qc=5)
REM Li 1|1.3|8|9|10|10U:20(qc=5)
REM Fe 3|2.2|2.0|1.0|8|9|10|40:41:32(qc=5)
REM 
CELL 1.54180    3.48561    3.48561   11.75914   90.00000   90.00000   90.00000
LATT -1
SFAC Li O  S  Fe 
Li     1  0.0000000000000  0.5000000000000 -0.4366400000000 1.0   0.02
Li     1 -0.5000000000000  0.0000000000000  0.4366400000000 1.0   0.02
O      2 -0.5000000000000  0.0000000000000  0.5989260000000 1.0  -0.21
O      2  0.0000000000000  0.5000000000000 -0.5989260000000 1.0  -0.21
O      2  0.5000000000000 -0.5000000000000  0.0000000000000 1.0   0.14
S      3 -0.5000000000000 -0.5000000000000 -0.2742980000000 1.0   0.00
S      3  0.5000000000000  0.5000000000000  0.2742980000000 1.0   0.00
Fe     4 -0.2495740000000 -0.2492280000000  0.1218260000000 1.0   2.24
Fe     4  0.2495740000000  0.2492280000000  0.1218260000000 1.0   2.24
Fe     4 -0.2492280000000  0.2495740000000 -0.1218260000000 1.0   2.24
Fe     4  0.2492280000000 -0.2495740000000 -0.1218260000000 1.0   2.24
END
