TITL LFSO-Li5FeS2O2-200921-003317-303b44 0.3141 478.148198 -6.68678076E+003 5.28029 5.95798 20 (P2) n - 1
REM
REM Run started: Mon, 21 Sep 2020 11:44:09 +0100 in /lustre/scratch/uccabz1/launch_tmp/launcher_2020-09-20-23-33-15-367129
REM CASTEP 20.1 from code version af48c487+ pr-geom-scf-spinfix Tue Jun 2 15:39:59 2020 +0100
REM Functional Perdew Burke Ernzerhof Relativity Koelling-Harmon Dispersion off
REM Cut-off 340.0000 eV Grid scale 1.7500 Gmax 16.5316 1/A FBSC none
REM MP grid 4 4 1 Offset 0.000 0.000 0.000 No. kpts 4 Spacing 0.07
REM Total runtime: 45481.9 s
REM Overall efficiency: 98.0833 %
REM
REM
REM
REM compiler GCC version 4.9.2
REM options -cpp -iprefix /lustre/shared/ucl/apps/gcc/4.9.2/bin/../lib/gcc/x86_64-unknown-linux-gnu/4.9.2/ -mtune=corei7 -march=x86-64 -g -Og
REM COMMAND_LINE
REM seed 624915281 1586013174 -61642222 -198425987 50572602 -1044010053 -1405193616 517848096 2051230923 939360458 530509427 1566494089
REM
REM S 3|1.8|5|6|7|30:31:32(qc=5)
REM O 2|1.5|12|13|15|20:21(qc=5)
REM Li 1|1.3|8|9|10|10U:20(qc=5)
REM Fe 3|2.2|2.0|1.0|8|9|10|40:41:32(qc=5)
REM 
CELL 1.54180    4.50589    4.89363   29.40209   47.52038   90.00000   90.00000
LATT -1
SFAC Li O  S  Fe 
Li     1 -0.3871130000000  0.0856790000000  0.3316060000000 1.0   0.00
Li     1 -0.3871130000000 -0.0856790000000 -0.3316060000000 1.0   0.00
Li     1  0.3073700000000 -0.3394970000000  0.2715030000000 1.0  -0.00
Li     1  0.3073700000000  0.3394970000000 -0.2715030000000 1.0  -0.00
Li     1 -0.1857980000000  0.0923860000000  0.0541420000000 1.0  -0.19
Li     1 -0.1857980000000 -0.0923860000000 -0.0541420000000 1.0  -0.19
Li     1 -0.1454780000000  0.5496740000000  0.2138040000000 1.0   0.00
Li     1 -0.1454780000000 -0.5496740000000 -0.2138040000000 1.0   0.00
Li     1 -0.2500030000000  0.2736940000000 -0.3052010000000 1.0  -0.00
Li     1 -0.2500030000000 -0.2736940000000  0.3052010000000 1.0  -0.00
O      2 -0.2893140000000  0.4183590000000 -0.2645700000000 1.0   0.00
O      2 -0.2893140000000 -0.4183590000000  0.2645700000000 1.0   0.00
O      2  0.3798480000000  0.2181670000000 -0.3222060000000 1.0  -0.00
O      2  0.3798480000000 -0.2181670000000  0.3222060000000 1.0  -0.00
S      3  0.1107360000000  0.0886490000000  0.3037270000000 1.0   0.00
S      3  0.1107360000000 -0.0886490000000 -0.3037270000000 1.0   0.00
S      3 -0.6888800000000 -0.1718570000000  0.0778120000000 1.0   0.10
S      3 -0.6888800000000  0.1718570000000 -0.0778120000000 1.0   0.10
Fe     4  0.3193470000000 -0.3335090000000  0.0195540000000 1.0   2.72
Fe     4  0.3193470000000  0.3335090000000 -0.0195540000000 1.0   2.72
END
