TITL LFSO-Li4Fe3S4O-200925-174135-3fd237 -0.4864 256.721066 -5.04051623E+003 7.27676 7.71573 12 (P2) n - 1
REM
REM Run started: Sat, 26 Sep 2020 07:21:55 +0100 in /lustre/scratch/uccabz1/launch_tmp/launcher_2020-09-26-06-02-56-565380
REM CASTEP 20.1 from code version af48c487+ pr-geom-scf-spinfix Tue Jun 2 15:39:59 2020 +0100
REM Functional Perdew Burke Ernzerhof Relativity Koelling-Harmon Dispersion off
REM Cut-off 340.0000 eV Grid scale 1.7500 Gmax 16.5316 1/A FBSC none
REM MP grid 4 3 2 Offset 0.000 0.000 0.000 No. kpts 6 Spacing 0.07
REM Total runtime: 43283.3 s
REM Overall efficiency: 95.6923 %
REM
REM
REM
REM compiler GCC version 4.9.2
REM options -cpp -iprefix /lustre/shared/ucl/apps/gcc/4.9.2/bin/../lib/gcc/x86_64-unknown-linux-gnu/4.9.2/ -mtune=corei7 -march=x86-64 -g -Og
REM COMMAND_LINE
REM seed 1599343174 1857466783 -2030135570 1616836499 1645354966 206549398 1245725561 1653965155 -286593420 1749134091 -1890390305 -186321991
REM
REM S 3|1.8|5|6|7|30:31:32(qc=5)
REM O 2|1.5|12|13|15|20:21(qc=5)
REM Li 1|1.3|8|9|10|10U:20(qc=5)
REM Fe 3|2.2|2.0|1.0|8|9|10|40:41:32(qc=5)
REM 
CELL 1.54180    4.11854    6.34830    9.92051   90.00000   90.00000   81.79046
LATT -1
SFAC Li O  S  Fe 
Li     1 -0.2283430000000 -0.1528880000000  0.4928890000000 1.0  -0.05
Li     1  0.2283430000000  0.1528880000000  0.4928890000000 1.0  -0.05
Li     1  0.5297960000000  0.2049790000000 -0.2664700000000 1.0  -0.01
Li     1 -0.5297960000000 -0.2049790000000 -0.2664700000000 1.0  -0.01
O      2  0.5000000000000  0.0000000000000 -0.3952160000000 1.0   0.04
S      3  0.0068160000000  0.3369200000000 -0.1772380000000 1.0   0.29
S      3 -0.0068160000000 -0.3369200000000 -0.1772380000000 1.0   0.29
S      3 -0.1932330000000 -0.2382330000000  0.2365370000000 1.0   0.09
S      3  0.1932330000000  0.2382330000000  0.2365370000000 1.0   0.09
Fe     4 -0.2750090000000  0.1181380000000  0.2344390000000 1.0   1.94
Fe     4  0.2750090000000 -0.1181380000000  0.2344390000000 1.0   1.94
Fe     4 -0.5000000000000 -0.5000000000000  0.2338190000000 1.0   2.75
END
