TITL LFSO-Li6FeSO3-200909-233219-de8267 -0.0406 125.784371 -3.68046476E+003 4.00000 4.10664 11 (Pm) n - 1
REM
REM Run started: Thu, 10 Sep 2020 00:05:20 +0100 in /lustre/scratch/uccabz1/launch_tmp/launcher_2020-09-09-22-32-17-602344
REM CASTEP 20.1 from code version af48c487+ pr-geom-scf-spinfix Tue Jun 2 15:39:59 2020 +0100
REM Functional Perdew Burke Ernzerhof Relativity Koelling-Harmon Dispersion off
REM Cut-off 340.0000 eV Grid scale 1.7500 Gmax 16.5316 1/A FBSC none
REM MP grid 4 4 2 Offset 0.000 0.000 0.000 No. kpts 8 Spacing 0.07
REM Total runtime: 2265.11 s
REM Overall efficiency: 90.4286 %
REM
REM
REM
REM compiler GCC version 4.9.2
REM options -cpp -iprefix /lustre/shared/ucl/apps/gcc/4.9.2/bin/../lib/gcc/x86_64-unknown-linux-gnu/4.9.2/ -mtune=corei7 -march=x86-64 -g -Og
REM COMMAND_LINE
REM seed -791415411 1015419326 -1745806143 97293561 169746893 74483307 192226598 1933855630 1985478696 1464096977 1953588449 -15133297
REM
REM S 3|1.8|5|6|7|30:31:32(qc=5)
REM O 2|1.5|12|13|15|20:21(qc=5)
REM Li 1|1.3|8|9|10|10U:20(qc=5)
REM Fe 3|2.2|2.0|1.0|8|9|10|40:41:32(qc=5)
REM 
CELL 1.54180    3.75635    3.54264    9.45311   90.00000   90.00000   89.22009
LATT -1
SFAC Li O  S  Fe 
Li     1 -0.1774440000000  0.4958530000000  0.1665500000000 1.0   0.00
Li     1 -0.1774440000000  0.4958530000000 -0.1665500000000 1.0   0.00
Li     1  0.3266420000000  0.0154110000000 -0.1616490000000 1.0   0.01
Li     1  0.3266420000000  0.0154110000000  0.1616490000000 1.0   0.01
Li     1  0.2741600000000 -0.2547220000000 -0.3762850000000 1.0  -0.06
Li     1  0.2741600000000 -0.2547220000000  0.3762850000000 1.0  -0.06
O      2 -0.2002310000000 -0.0385590000000 -0.2839750000000 1.0   0.12
O      2 -0.2002310000000 -0.0385590000000  0.2839750000000 1.0   0.12
O      2  0.2797940000000  0.2896650000000  0.5000000000000 1.0   0.23
S      3  0.3160860000000  0.5092090000000  0.0000000000000 1.0   0.00
Fe     4 -0.2213500000000  0.1812450000000  0.5000000000000 1.0   3.62
END
