TITL LFSO-LiFe3SO4-200909-023148-a61ff7 -0.0516 108.576928 -4.84657036E+003 4.98533 5.13857 9 (P3) n - 1
REM
REM Run started: Wed, 09 Sep 2020 03:09:58 +0100 in /lustre/scratch/uccabz1/launch_tmp/launcher_2020-09-09-01-31-46-794171
REM CASTEP 20.1 from code version af48c487+ pr-geom-scf-spinfix Tue Jun 2 15:39:59 2020 +0100
REM Functional Perdew Burke Ernzerhof Relativity Koelling-Harmon Dispersion off
REM Cut-off 340.0000 eV Grid scale 1.7500 Gmax 16.5316 1/A FBSC none
REM MP grid 4 4 3 Offset 0.000 0.000 0.000 No. kpts 24 Spacing 0.07
REM Total runtime: 2564.43 s
REM Overall efficiency: 90.6667 %
REM
REM
REM
REM compiler GCC version 4.9.2
REM options -cpp -iprefix /lustre/shared/ucl/apps/gcc/4.9.2/bin/../lib/gcc/x86_64-unknown-linux-gnu/4.9.2/ -mtune=corei7 -march=x86-64 -g -Og
REM COMMAND_LINE
REM seed -1334728369 870349519 1930428689 -177171381 -1501962374 271470043 1426100823 1608225724 -550162573 -994898243 -1156995330 367900778
REM
REM S 3|1.8|5|6|7|30:31:32(qc=5)
REM O 2|1.5|12|13|15|20:21(qc=5)
REM Li 1|1.3|8|9|10|10U:20(qc=5)
REM Fe 3|2.2|2.0|1.0|8|9|10|40:41:32(qc=5)
REM 
CELL 1.54180    4.79066    4.79066    5.46280   90.00000   90.00000  120.00000
LATT -1
SFAC Li O  S  Fe 
Li     1  0.3333330000000 -0.3333330000000  0.3845260000000 1.0   0.01
O      2  0.3339160000000  0.3357790000000  0.1324120000000 1.0   0.07
O      2  0.0018630000000 -0.3339160000000  0.1324120000000 1.0   0.07
O      2 -0.3357790000000 -0.0018630000000  0.1324120000000 1.0   0.07
O      2  0.3333330000000 -0.3333330000000 -0.2424170000000 1.0   0.02
S      3 -0.3333330000000  0.3333330000000 -0.3404350000000 1.0   0.09
Fe     4 -0.6801040000000  0.0047120000000 -0.0560740000000 1.0   1.55
Fe     4 -0.3151840000000  0.6801040000000 -0.0560740000000 1.0   1.55
Fe     4 -0.0047120000000  0.3151840000000 -0.0560740000000 1.0   1.55
END
