TITL LFSO-Li2Fe4S3O2-200912-023904-31f5a2 -0.2874 486.155070 -11282.00049098 -25.0902 25.7331 22 (C2) n - 1
REM
REM Run started: Sun, 13 Sep 2020 22:55:27 +0100 in /lustre/scratch/uccabz1/launch_tmp/launcher_2020-09-13-20-22-55-290182
REM CASTEP 20.1 from code version af48c487+ pr-geom-scf-spinfix Tue Jun 2 15:39:59 2020 +0100
REM Functional Perdew Burke Ernzerhof Relativity Koelling-Harmon Dispersion off
REM Cut-off 340.0000 eV Grid scale 1.7500 Gmax 16.5316 1/A FBSC none
REM MP grid 3 3 2 Offset 0.000 0.000 0.000 No. kpts 9 Spacing 0.07
REM Total runtime: 149758 s
REM Overall efficiency: 98.8182 %
REM
REM
REM
REM compiler GCC version 4.9.2
REM options -cpp -iprefix /lustre/shared/ucl/apps/gcc/4.9.2/bin/../lib/gcc/x86_64-unknown-linux-gnu/4.9.2/ -mtune=corei7 -march=x86-64 -g -Og
REM COMMAND_LINE
REM seed 105532163 1809354765 -1110755417 263444033 -1505890279 1449956371 1259316274 88580995 -412710892 1086239433 -1496712119 -1483678117
REM
REM S 3|1.8|5|6|7|30:31:32(qc=5)
REM O 2|1.5|12|13|15|20:21(qc=5)
REM Li 1|1.3|8|9|10|10U:20(qc=5)
REM Fe 3|2.2|2.0|1.0|8|9|10|40:41:32(qc=5)
REM 
CELL 1.54180    6.05789    7.26346   11.67499  108.12366   84.98230   90.00000
LATT -1
SFAC Li O  S  Fe 
Li     1 -0.1976660000000 -0.5063320000000 -0.3255130000000 1.0   0.02
Li     1  0.1976660000000 -0.1808190000000  0.3255130000000 1.0   0.02
Li     1  0.2665970000000  0.3977600000000  0.1029090000000 1.0  -0.06
Li     1 -0.2665970000000  0.2948510000000 -0.1029090000000 1.0  -0.06
O      2  0.0019020000000 -0.0662740000000 -0.5247920000000 1.0  -0.27
O      2 -0.0019020000000  0.4585190000000  0.5247920000000 1.0  -0.27
O      2 -0.1160960000000  0.3130490000000 -0.2462800000000 1.0  -0.18
O      2  0.1160960000000 -0.4406710000000  0.2462800000000 1.0  -0.18
S      3 -0.2299800000000 -0.1484310000000 -0.2781610000000 1.0  -0.28
S      3  0.2299800000000  0.1297300000000  0.2781610000000 1.0  -0.28
S      3 -0.5280910000000  0.1544010000000 -0.4269140000000 1.0  -0.15
S      3  0.5280910000000  0.5813150000000  0.4269140000000 1.0  -0.15
S      3  0.3269360000000  0.3202130000000 -0.1186860000000 1.0  -0.33
S      3 -0.3269360000000  0.4388990000000  0.1186860000000 1.0  -0.33
Fe     4 -0.1023330000000 -0.2906170000000  0.5162150000000 1.0  -2.79
Fe     4  0.1023330000000  0.1931680000000 -0.5162150000000 1.0  -2.79
Fe     4 -0.4756770000000 -0.1462240000000 -0.4086940000000 1.0  -3.20
Fe     4  0.4756770000000  0.2624700000000  0.4086940000000 1.0  -3.20
Fe     4 -0.1834330000000 -0.4389060000000  0.2838780000000 1.0  -2.68
Fe     4  0.1834330000000  0.2772160000000 -0.2838780000000 1.0  -2.68
Fe     4  0.1434500000000 -0.5399260000000 -0.6260500000000 1.0  -2.64
Fe     4 -0.1434500000000  0.0861240000000  0.6260500000000 1.0  -2.64
END
