TITL LFSO-Li2Fe3SO3-200912-145321-506282 -0.1287 220.252067 -9.21458622E+003 14.4961 15.2425 18 (P3) n - 1
REM
REM Run started: Sun, 13 Sep 2020 00:08:16 +0100 in /lustre/scratch/uccabz1/launch_tmp/launcher_2020-09-12-13-53-20-260994
REM CASTEP 20.1 from code version af48c487+ pr-geom-scf-spinfix Tue Jun 2 15:39:59 2020 +0100
REM Functional Perdew Burke Ernzerhof Relativity Koelling-Harmon Dispersion off
REM Cut-off 340.0000 eV Grid scale 1.7500 Gmax 16.5316 1/A FBSC none
REM MP grid 3 3 2 Offset 0.000 0.000 0.000 No. kpts 5 Spacing 0.07
REM Total runtime: 35902.1 s
REM Overall efficiency: 84.3846 %
REM
REM
REM
REM compiler GCC version 4.9.2
REM options -cpp -iprefix /lustre/shared/ucl/apps/gcc/4.9.2/bin/../lib/gcc/x86_64-unknown-linux-gnu/4.9.2/ -mtune=corei7 -march=x86-64 -g -Og
REM COMMAND_LINE
REM seed 1988039060 1875932914 -1721855345 -1830735152 1908418147 -1127912323 270892445 -1577291634 -6130962 557674709 -1838148502 1952115460
REM
REM S 3|1.8|5|6|7|30:31:32(qc=5)
REM O 2|1.5|12|13|15|20:21(qc=5)
REM Li 1|1.3|8|9|10|10U:20(qc=5)
REM Fe 3|2.2|2.0|1.0|8|9|10|40:41:32(qc=5)
REM 
CELL 1.54180    5.86040    5.86040    7.40517   90.00000   90.00000  120.00000
LATT -1
SFAC Li O  S  Fe 
Li     1 -0.6618950000000  0.0537160000000 -0.0998900000000 1.0   0.01
Li     1 -0.0537160000000  0.2843890000000 -0.0998900000000 1.0   0.01
Li     1 -0.2843890000000  0.6618950000000 -0.0998900000000 1.0   0.01
Li     1  0.3333330000000 -0.3333330000000  0.0025850000000 1.0   0.01
O      2 -0.3674440000000 -0.0063230000000 -0.1972980000000 1.0   0.27
O      2  0.0063230000000 -0.3611220000000 -0.1972980000000 1.0   0.27
O      2  0.3611220000000  0.3674440000000 -0.1972980000000 1.0   0.27
O      2  0.1030200000000  0.3445500000000  0.1320990000000 1.0   0.38
O      2 -0.3445500000000 -0.2415300000000  0.1320990000000 1.0   0.38
O      2  0.2415300000000 -0.1030200000000  0.1320990000000 1.0   0.38
S      3 -0.3333330000000  0.3333330000000  0.3324790000000 1.0   0.04
S      3  0.0000000000000 -0.0000000000000 -0.5192250000000 1.0  -0.04
Fe     4  0.0996940000000  0.3988440000000  0.3539770000000 1.0   1.95
Fe     4 -0.3988440000000 -0.2991500000000  0.3539770000000 1.0   1.95
Fe     4  0.2991500000000 -0.0996940000000  0.3539770000000 1.0   1.95
Fe     4  0.4106650000000  0.3162780000000 -0.4195890000000 1.0   2.22
Fe     4 -0.3162780000000  0.0943870000000 -0.4195890000000 1.0   2.22
Fe     4 -0.0943870000000 -0.4106650000000 -0.4195890000000 1.0   2.22
END
