TITL LFSO-Li4Fe3S3O2-200927-015609-b100f6 0.0272 415.712358 -1.03552109E+004 12.0960 12.8792 24 (C2221) n - 1
REM
REM Run started: Mon, 28 Sep 2020 09:24:20 +0100 in /lustre/scratch/uccabz1/launch_tmp/launcher_2020-09-27-09-00-00-719673
REM CASTEP 20.1 from code version af48c487+ pr-geom-scf-spinfix Tue Jun 2 15:39:59 2020 +0100
REM Functional Perdew Burke Ernzerhof Relativity Koelling-Harmon Dispersion off
REM Cut-off 340.0000 eV Grid scale 1.7500 Gmax 16.5316 1/A FBSC none
REM MP grid 3 3 3 Offset 0.000 0.000 0.000 No. kpts 8 Spacing 0.07
REM Total runtime: 63998.7 s
REM Overall efficiency: 98.8333 %
REM
REM
REM
REM compiler GCC version 4.9.2
REM options -cpp -iprefix /lustre/shared/ucl/apps/gcc/4.9.2/bin/../lib/gcc/x86_64-unknown-linux-gnu/4.9.2/ -mtune=corei7 -march=x86-64 -g -Og
REM COMMAND_LINE
REM seed 973276619 -1229385771 -797868854 -1829975811 -1441377852 2020305517 -1213159651 -548382031 -1546807126 -1229932128 -677207243 1380476575
REM
REM S 3|1.8|5|6|7|30:31:32(qc=5)
REM O 2|1.5|12|13|15|20:21(qc=5)
REM Li 1|1.3|8|9|10|10U:20(qc=5)
REM Fe 3|2.2|2.0|1.0|8|9|10|40:41:32(qc=5)
REM 
CELL 1.54180    5.89415   10.61912   10.61912  141.28459   90.00000   90.00000
LATT -1
SFAC Li O  S  Fe 
Li     1 -0.4512660000000  0.0669210000000  0.2768420000000 1.0  -0.02
Li     1  0.0487340000000 -0.0669210000000 -0.2768420000000 1.0  -0.02
Li     1 -0.0487340000000 -0.2768420000000 -0.0669210000000 1.0  -0.02
Li     1  0.4512660000000  0.2768420000000  0.0669210000000 1.0  -0.02
Li     1 -0.0475080000000 -0.5390890000000  0.3286330000000 1.0  -0.01
Li     1  0.4524920000000  0.5390890000000 -0.3286330000000 1.0  -0.01
Li     1 -0.4524920000000 -0.3286330000000  0.5390890000000 1.0  -0.01
Li     1  0.0475080000000  0.3286330000000 -0.5390890000000 1.0  -0.01
O      2  0.5576150000000  0.4054800000000  0.0183740000000 1.0   0.06
O      2  0.0576150000000 -0.4054800000000 -0.0183740000000 1.0   0.06
O      2 -0.0576150000000 -0.0183740000000 -0.4054800000000 1.0   0.06
O      2 -0.5576150000000  0.0183740000000  0.4054800000000 1.0   0.06
S      3 -0.0402300000000  0.0431980000000  0.3644270000000 1.0  -0.01
S      3 -0.5402300000000 -0.0431980000000 -0.3644270000000 1.0  -0.01
S      3  0.5402300000000 -0.3644270000000 -0.0431980000000 1.0  -0.01
S      3  0.0402300000000  0.3644270000000  0.0431980000000 1.0  -0.01
S      3 -0.0000000000000 -0.3273310000000 -0.3273310000000 1.0   0.00
S      3 -0.5000000000000  0.3273310000000  0.3273310000000 1.0   0.00
Fe     4 -0.2969740000000 -0.0343660000000 -0.5359930000000 1.0   2.07
Fe     4  0.2030260000000  0.0343660000000  0.5359930000000 1.0   2.07
Fe     4 -0.2030260000000  0.5359930000000  0.0343660000000 1.0   2.07
Fe     4  0.2969740000000 -0.5359930000000 -0.0343660000000 1.0   2.07
Fe     4  0.2500000000000 -0.1871040000000  0.1871040000000 1.0   1.87
Fe     4 -0.2500000000000  0.1871040000000 -0.1871040000000 1.0   1.87
END
