TITL LFSO-Li4Fe2S3O2-200911-085516-c1ac05 0.0485 280.569143 -4.31417562E+003 8.52174 8.57210 11 (Pm) n - 1
REM
REM Run started: Fri, 11 Sep 2020 11:29:15 +0100 in /lustre/scratch/uccabz1/launch_tmp/launcher_2020-09-11-07-55-15-017193
REM CASTEP 20.1 from code version af48c487+ pr-geom-scf-spinfix Tue Jun 2 15:39:59 2020 +0100
REM Functional Perdew Burke Ernzerhof Relativity Koelling-Harmon Dispersion off
REM Cut-off 340.0000 eV Grid scale 1.7500 Gmax 16.5316 1/A FBSC none
REM MP grid 3 5 2 Offset 0.000 0.000 0.000 No. kpts 8 Spacing 0.07
REM Total runtime: 9486.63 s
REM Overall efficiency: 96.2222 %
REM
REM
REM
REM compiler GCC version 4.9.2
REM options -cpp -iprefix /lustre/shared/ucl/apps/gcc/4.9.2/bin/../lib/gcc/x86_64-unknown-linux-gnu/4.9.2/ -mtune=corei7 -march=x86-64 -g -Og
REM COMMAND_LINE
REM seed -532796751 -374494851 -204624867 920358200 -687877581 1390105003 1303202849 1645960251 -1532488530 1013224552 -1481487576 1126519725
REM
REM S 3|1.8|5|6|7|30:31:32(qc=5)
REM O 2|1.5|12|13|15|20:21(qc=5)
REM Li 1|1.3|8|9|10|10U:20(qc=5)
REM Fe 3|2.2|2.0|1.0|8|9|10|40:41:32(qc=5)
REM 
CELL 1.54180    7.06265    3.52706   13.09989   90.00000   90.00000  120.70703
LATT -1
SFAC Li O  S  Fe 
Li     1  0.2665960000000 -0.6086200000000  0.1939480000000 1.0   0.04
Li     1  0.2665960000000 -0.6086200000000 -0.1939480000000 1.0   0.04
Li     1 -0.0697240000000 -0.4394000000000  0.2916190000000 1.0  -0.02
Li     1 -0.0697240000000 -0.4394000000000 -0.2916190000000 1.0  -0.02
O      2 -0.0187240000000  0.1129290000000 -0.2359870000000 1.0   0.33
O      2 -0.0187240000000  0.1129290000000  0.2359870000000 1.0   0.33
S      3  0.5303570000000  0.1564690000000  0.2426240000000 1.0   0.26
S      3  0.5303570000000  0.1564690000000 -0.2426240000000 1.0   0.26
S      3 -0.3606370000000 -0.2299730000000  0.0000000000000 1.0   0.36
Fe     4 -0.2798890000000 -0.1510140000000  0.1655580000000 1.0   3.47
Fe     4 -0.2798890000000 -0.1510140000000 -0.1655580000000 1.0   3.47
END
