TITL LFSO-Li6FeS3O-200910-001302-51d4b3 -0.5225 450.514599 -6.82262325E+003 8.00000 8.17095 22 (R3) n - 1
REM
REM Run started: Thu, 10 Sep 2020 21:18:28 +0100 in /lustre/scratch/uccabz1/launch_tmp/launcher_2020-09-10-12-12-44-435365
REM CASTEP 20.1 from code version af48c487+ pr-geom-scf-spinfix Tue Jun 2 15:39:59 2020 +0100
REM Functional Perdew Burke Ernzerhof Relativity Koelling-Harmon Dispersion off
REM Cut-off 340.0000 eV Grid scale 1.7500 Gmax 16.5316 1/A FBSC none
REM MP grid 2 2 2 Offset 0.000 0.000 0.000 No. kpts 4 Spacing 0.07
REM Total runtime: 74337.7 s
REM Overall efficiency: 92.1818 %
REM
REM
REM
REM compiler GCC version 4.9.2
REM options -cpp -iprefix /lustre/shared/ucl/apps/gcc/4.9.2/bin/../lib/gcc/x86_64-unknown-linux-gnu/4.9.2/ -mtune=corei7 -march=x86-64 -g -Og
REM COMMAND_LINE
REM seed 825316003 -990324879 1551706631 -1892174595 633680477 -384431892 1212572829 279101161 1089874874 -1949652977 1271770465 1373793217
REM
REM S 3|1.8|5|6|7|30:31:32(qc=5)
REM O 2|1.5|12|13|15|20:21(qc=5)
REM Li 1|1.3|8|9|10|10U:20(qc=5)
REM Fe 3|2.2|2.0|1.0|8|9|10|40:41:32(qc=5)
REM 
CELL 1.54180    9.37862    9.37862    8.01860   54.21086   54.21086   60.00000
LATT -1
SFAC Li O  S  Fe 
Li     1 -0.1844130000000  0.4695280000000  0.0377000000000 1.0   0.02
Li     1 -0.3228160000000 -0.1844130000000  0.0377000000000 1.0   0.02
Li     1  0.4695280000000 -0.3228160000000  0.0377000000000 1.0   0.02
Li     1  0.3674650000000  0.4209090000000 -0.4734400000000 1.0   0.03
Li     1 -0.3149350000000  0.3674650000000 -0.4734400000000 1.0   0.03
Li     1  0.4209090000000 -0.3149350000000 -0.4734400000000 1.0   0.03
Li     1  0.0780840000000 -0.0293910000000  0.4583720000000 1.0   0.01
Li     1  0.4929340000000  0.0780840000000  0.4583720000000 1.0   0.01
Li     1 -0.0293910000000  0.4929340000000  0.4583720000000 1.0   0.01
Li     1  0.2017290000000 -0.5008900000000 -0.0753360000000 1.0   0.01
Li     1  0.3744960000000  0.2017290000000 -0.0753360000000 1.0   0.01
Li     1 -0.5008900000000  0.3744960000000 -0.0753360000000 1.0   0.01
O      2 -0.3821880000000 -0.3821880000000  0.1465630000000 1.0   0.03
O      2 -0.5700560000000 -0.5700560000000  0.7101680000000 1.0   0.01
S      3  0.1017740000000 -0.1876040000000 -0.2016600000000 1.0   0.18
S      3 -0.7125110000000  0.1017740000000 -0.2016600000000 1.0   0.18
S      3 -0.1876040000000 -0.7125110000000 -0.2016600000000 1.0   0.18
S      3 -0.0004960000000  0.2790050000000  0.2512580000000 1.0   0.18
S      3  0.4702310000000 -0.0004960000000  0.2512580000000 1.0   0.18
S      3  0.2790050000000  0.4702310000000  0.2512580000000 1.0   0.18
Fe     4  0.2204670000000  0.2204670000000  0.3385970000000 1.0   3.25
Fe     4  0.0701140000000  0.0701140000000 -0.2103420000000 1.0   3.43
END
