TITL LFSO-Li6FeS2O2-200920-210608-67bdad 0.0396 386.623412 -7.09373571E+003 8.00000 8.22316 22 (C2/c) n - 1
REM
REM Run started: Mon, 21 Sep 2020 09:50:39 +0100 in /lustre/scratch/uccabz1/launch_tmp/launcher_2020-09-20-20-06-06-723381
REM CASTEP 20.1 from code version af48c487+ pr-geom-scf-spinfix Tue Jun 2 15:39:59 2020 +0100
REM Functional Perdew Burke Ernzerhof Relativity Koelling-Harmon Dispersion off
REM Cut-off 340.0000 eV Grid scale 1.7500 Gmax 16.5316 1/A FBSC none
REM MP grid 4 2 2 Offset 0.000 0.000 0.000 No. kpts 6 Spacing 0.07
REM Total runtime: 46390.7 s
REM Overall efficiency: 93.75 %
REM
REM
REM
REM compiler GCC version 4.9.2
REM options -cpp -iprefix /lustre/shared/ucl/apps/gcc/4.9.2/bin/../lib/gcc/x86_64-unknown-linux-gnu/4.9.2/ -mtune=corei7 -march=x86-64 -g -Og
REM COMMAND_LINE
REM seed 108032893 -1859168324 217111234 -2026535776 -990084757 1035302187 156607705 -532223900 780161101 -336266100 1603743419 1422182874
REM
REM S 3|1.8|5|6|7|30:31:32(qc=5)
REM O 2|1.5|12|13|15|20:21(qc=5)
REM Li 1|1.3|8|9|10|10U:20(qc=5)
REM Fe 3|2.2|2.0|1.0|8|9|10|40:41:32(qc=5)
REM 
CELL 1.54180    6.24969    9.38528    9.38528   82.26026   57.90372   57.90372
LATT -1
SFAC Li O  S  Fe 
Li     1  0.4454520000000 -0.4620850000000 -0.3203710000000 1.0  -0.01
Li     1  0.0545480000000  0.3203710000000  0.4620850000000 1.0  -0.01
Li     1 -0.4454520000000  0.4620850000000  0.3203710000000 1.0  -0.01
Li     1 -0.0545480000000 -0.3203710000000 -0.4620850000000 1.0  -0.01
Li     1  0.0900820000000  0.3827100000000  0.0643690000000 1.0  -0.02
Li     1  0.4099180000000 -0.0643690000000 -0.3827100000000 1.0  -0.02
Li     1 -0.0900820000000 -0.3827100000000 -0.0643690000000 1.0  -0.02
Li     1 -0.4099180000000  0.0643690000000  0.3827100000000 1.0  -0.02
Li     1 -0.5515540000000 -0.3839750000000  0.1010720000000 1.0  -0.00
Li     1  0.0515540000000 -0.1010720000000  0.3839750000000 1.0  -0.00
Li     1  0.5515540000000  0.3839750000000 -0.1010720000000 1.0  -0.00
Li     1 -0.0515540000000  0.1010720000000 -0.3839750000000 1.0  -0.00
O      2  0.1973940000000  0.1685290000000 -0.4025650000000 1.0   0.14
O      2  0.3026060000000  0.4025650000000 -0.1685290000000 1.0   0.14
O      2 -0.1973940000000 -0.1685290000000  0.4025650000000 1.0   0.14
O      2 -0.3026060000000 -0.4025650000000  0.1685290000000 1.0   0.14
S      3  0.2169610000000 -0.2162500000000 -0.4251190000000 1.0   0.10
S      3  0.2830390000000  0.4251190000000  0.2162500000000 1.0   0.10
S      3 -0.2169610000000  0.2162500000000  0.4251190000000 1.0   0.10
S      3 -0.2830390000000 -0.4251190000000 -0.2162500000000 1.0   0.10
Fe     4  0.2500000000000  0.3113220000000 -0.3113220000000 1.0   3.58
Fe     4 -0.2500000000000 -0.3113220000000  0.3113220000000 1.0   3.58
END
