TITL LFSO-Li2Fe2SO3-200913-054745-ba8cb6 0.0521 348.826392 -1.12322791E+004 18.4712 19.3785 24 (P31) n - 1
REM
REM Run started: Sun, 13 Sep 2020 14:18:57 +0100 in /lustre/scratch/uccabz1/launch_tmp/launcher_2020-09-13-04-47-43-738355
REM CASTEP 20.1 from code version af48c487+ pr-geom-scf-spinfix Tue Jun 2 15:39:59 2020 +0100
REM Functional Perdew Burke Ernzerhof Relativity Koelling-Harmon Dispersion off
REM Cut-off 340.0000 eV Grid scale 1.7500 Gmax 16.5316 1/A FBSC none
REM MP grid 5 2 2 Offset 0.000 0.000 0.000 No. kpts 10 Spacing 0.07
REM Total runtime: 31344.6 s
REM Overall efficiency: 87.8571 %
REM
REM
REM
REM compiler GCC version 4.9.2
REM options -cpp -iprefix /lustre/shared/ucl/apps/gcc/4.9.2/bin/../lib/gcc/x86_64-unknown-linux-gnu/4.9.2/ -mtune=corei7 -march=x86-64 -g -Og
REM COMMAND_LINE
REM seed -660964753 2013708318 1881597116 -751233071 -82317243 -676473958 1517537979 -647665439 -1691549958 587504345 -1571952812 -1620568027
REM
REM S 3|1.8|5|6|7|30:31:32(qc=5)
REM O 2|1.5|12|13|15|20:21(qc=5)
REM Li 1|1.3|8|9|10|10U:20(qc=5)
REM Fe 3|2.2|2.0|1.0|8|9|10|40:41:32(qc=5)
REM 
CELL 1.54180    3.20488   11.21073   11.21073  120.00000   90.00000   90.00000
LATT -1
SFAC Li O  S  Fe 
Li     1  0.3699200000000 -0.3012250000000 -0.0502740000000 1.0   0.05
Li     1 -0.2967470000000  0.0502740000000 -0.2509510000000 1.0   0.05
Li     1  0.0365870000000  0.2509510000000  0.3012250000000 1.0   0.05
Li     1  0.5887340000000 -0.0622430000000  0.4823550000000 1.0  -0.03
Li     1 -0.0779320000000 -0.4823550000000  0.4554030000000 1.0  -0.03
Li     1  0.2554010000000 -0.4554030000000  0.0622430000000 1.0  -0.03
O      2  0.4360630000000 -0.4303830000000 -0.4250060000000 1.0   0.15
O      2 -0.2306040000000  0.4250060000000 -0.0053770000000 1.0   0.15
O      2  0.1027290000000  0.0053770000000  0.4303830000000 1.0   0.15
O      2  0.2922390000000  0.2866460000000  0.4715870000000 1.0   0.26
O      2 -0.3744270000000 -0.4715870000000 -0.1849410000000 1.0   0.26
O      2 -0.0410940000000  0.1849410000000 -0.2866460000000 1.0   0.26
O      2  0.1551810000000 -0.2736210000000  0.1195630000000 1.0   0.27
O      2 -0.5114860000000 -0.1195630000000 -0.3931830000000 1.0   0.27
O      2 -0.1781530000000  0.3931830000000  0.2736210000000 1.0   0.27
S      3 -0.0277630000000  0.0048630000000  0.1467340000000 1.0   0.05
S      3  0.3055700000000 -0.1467340000000 -0.1418700000000 1.0   0.05
S      3 -0.3610960000000  0.1418700000000 -0.0048630000000 1.0   0.05
Fe     4  0.0900880000000 -0.1051020000000  0.2448710000000 1.0   2.56
Fe     4  0.4234220000000 -0.2448710000000 -0.3499730000000 1.0   2.56
Fe     4 -0.2432450000000  0.3499730000000  0.1051020000000 1.0   2.56
Fe     4 -0.5530490000000  0.4371040000000 -0.3647780000000 1.0   2.85
Fe     4 -0.2197160000000  0.3647780000000 -0.1981190000000 1.0   2.85
Fe     4  0.1136170000000  0.1981190000000 -0.4371040000000 1.0   2.85
END
