TITL LFSO-Li4Fe2S4O-200910-185744-20ef1e -0.1774 409.064395 -8.36078575E+003 -12.4852 13.0567 22 (Aem2) n - 1
REM
REM Run started: Fri, 11 Sep 2020 08:34:19 +0100 in /lustre/scratch/uccabz1/launch_tmp/launcher_2020-09-10-17-57-43-347763
REM CASTEP 20.1 from code version af48c487+ pr-geom-scf-spinfix Tue Jun 2 15:39:59 2020 +0100
REM Functional Perdew Burke Ernzerhof Relativity Koelling-Harmon Dispersion off
REM Cut-off 340.0000 eV Grid scale 1.7500 Gmax 16.5316 1/A FBSC none
REM MP grid 3 3 3 Offset 0.000 0.000 0.000 No. kpts 8 Spacing 0.07
REM Total runtime: 56072.2 s
REM Overall efficiency: 98.4615 %
REM
REM
REM
REM compiler GCC version 4.9.2
REM options -cpp -iprefix /lustre/shared/ucl/apps/gcc/4.9.2/bin/../lib/gcc/x86_64-unknown-linux-gnu/4.9.2/ -mtune=corei7 -march=x86-64 -g -Og
REM COMMAND_LINE
REM seed 1941894941 -309755386 -487780907 -1791566344 -671466103 1448770536 -1226118308 1947679215 -1014411106 -594807542 -282595583 -1743044942
REM
REM S 3|1.8|5|6|7|30:31:32(qc=5)
REM O 2|1.5|12|13|15|20:21(qc=5)
REM Li 1|1.3|8|9|10|10U:20(qc=5)
REM Fe 3|2.2|2.0|1.0|8|9|10|40:41:32(qc=5)
REM 
CELL 1.54180    6.15950    9.43429    9.43429  131.74179   90.00000   90.00000
LATT -1
SFAC Li O  S  Fe 
Li     1 -0.1855760000000  0.3555810000000  0.0252440000000 1.0   0.00
Li     1  0.1855760000000  0.0252440000000  0.3555810000000 1.0   0.00
Li     1 -0.1855760000000 -0.4747560000000 -0.1444190000000 1.0   0.00
Li     1  0.1855760000000 -0.1444190000000 -0.4747560000000 1.0   0.00
Li     1 -0.2170850000000 -0.6012350000000 -0.5709970000000 1.0  -0.03
Li     1  0.2170850000000 -0.5709970000000 -0.6012350000000 1.0  -0.03
Li     1 -0.2170850000000 -0.0709970000000 -0.1012350000000 1.0  -0.03
Li     1  0.2170850000000 -0.1012350000000 -0.0709970000000 1.0  -0.03
O      2 -0.4075590000000  0.3359130000000 -0.1640870000000 1.0  -0.30
O      2  0.4075590000000 -0.1640870000000  0.3359130000000 1.0  -0.30
S      3 -0.0766460000000 -0.1319730000000  0.0991510000000 1.0  -0.07
S      3  0.0766460000000  0.0991510000000 -0.1319730000000 1.0  -0.07
S      3 -0.0766460000000 -0.4008490000000  0.3680270000000 1.0  -0.07
S      3  0.0766460000000  0.3680270000000 -0.4008490000000 1.0  -0.07
S      3 -0.4495860000000 -0.0862340000000 -0.3115570000000 1.0  -0.13
S      3  0.4495860000000 -0.3115570000000 -0.0862340000000 1.0  -0.13
S      3 -0.4495860000000  0.1884430000000  0.4137660000000 1.0  -0.13
S      3  0.4495860000000  0.4137660000000  0.1884430000000 1.0  -0.13
Fe     4 -0.6023270000000  0.3721380000000 -0.2897380000000 1.0  -2.75
Fe     4  0.6023270000000 -0.2897380000000  0.3721380000000 1.0  -2.75
Fe     4 -0.6023270000000  0.2102620000000 -0.1278620000000 1.0  -2.75
Fe     4  0.6023270000000 -0.1278620000000  0.2102620000000 1.0  -2.75
END
