TITL LFSO-Li5FeSO3-200910-061305-4040c7 0.2626 117.034797 -3.48230634E+003 3.01679 3.23915 10 (P2/m) n - 1
REM
REM Run started: Thu, 10 Sep 2020 09:09:26 +0100 in /lustre/scratch/uccabz1/launch_tmp/launcher_2020-09-10-08-05-48-670589
REM CASTEP 20.1 from code version af48c487+ pr-geom-scf-spinfix Tue Jun 2 15:39:59 2020 +0100
REM Functional Perdew Burke Ernzerhof Relativity Koelling-Harmon Dispersion off
REM Cut-off 340.0000 eV Grid scale 1.7500 Gmax 16.5316 1/A FBSC none
REM MP grid 5 4 2 Offset 0.000 0.000 0.000 No. kpts 10 Spacing 0.07
REM Total runtime: 10104.2 s
REM Overall efficiency: 81.1429 %
REM
REM
REM
REM compiler GCC version 4.9.2
REM options -cpp -iprefix /lustre/shared/ucl/apps/gcc/4.9.2/bin/../lib/gcc/x86_64-unknown-linux-gnu/4.9.2/ -mtune=corei7 -march=x86-64 -g -Og
REM COMMAND_LINE
REM seed 760540957 -678433703 -1414874757 949862929 -1732752912 706740506 -290043844 -1401760344 563384381 -68327204 22379855 -479546577
REM
REM S 3|1.8|5|6|7|30:31:32(qc=5)
REM O 2|1.5|12|13|15|20:21(qc=5)
REM Li 1|1.3|8|9|10|10U:20(qc=5)
REM Fe 3|2.2|2.0|1.0|8|9|10|40:41:32(qc=5)
REM 
CELL 1.54180    3.94374    3.80487    8.94560   90.00000  119.32192   90.00000
LATT -1
SFAC Li O  S  Fe 
Li     1  0.2705610000000 -0.3274070000000 -0.2512310000000 1.0   0.03
Li     1 -0.2705610000000 -0.3274070000000  0.2512310000000 1.0   0.03
Li     1 -0.2099760000000  0.1740310000000 -0.2112270000000 1.0  -0.05
Li     1  0.2099760000000  0.1740310000000  0.2112270000000 1.0  -0.05
Li     1  0.5000000000000  0.1741900000000  0.0000000000000 1.0  -0.01
O      2  0.7707730000000  0.1703420000000  0.2653650000000 1.0   0.12
O      2 -0.7707730000000  0.1703420000000 -0.2653650000000 1.0   0.12
O      2 -1.0000000000000 -0.3301210000000 -0.5000000000000 1.0   0.19
S      3  0.0000000000000 -0.3294950000000  0.0000000000000 1.0   0.01
Fe     4  0.0000000000000 -0.8266420000000 -0.5000000000000 1.0   2.64
END
