TITL LFSO-Li4Fe3S4O-200926-064239-3d0102 0.0355 551.787318 -1.00810716E+004 -23.8098 24.2292 24 (P4) n - 1
REM
REM Run started: Sat, 26 Sep 2020 12:08:04 +0100 in /lustre/scratch/uccabz1/launch_tmp/launcher_2020-09-26-05-42-37-027162
REM CASTEP 20.1 from code version af48c487+ pr-geom-scf-spinfix Tue Jun 2 15:39:59 2020 +0100
REM Functional Perdew Burke Ernzerhof Relativity Koelling-Harmon Dispersion off
REM Cut-off 340.0000 eV Grid scale 1.7500 Gmax 16.5316 1/A FBSC none
REM MP grid 2 2 2 Offset 0.000 0.000 0.000 No. kpts 1 Spacing 0.07
REM Total runtime: 21290.5 s
REM Overall efficiency: 81.0909 %
REM
REM
REM
REM compiler GCC version 4.9.2
REM options -cpp -iprefix /lustre/shared/ucl/apps/gcc/4.9.2/bin/../lib/gcc/x86_64-unknown-linux-gnu/4.9.2/ -mtune=corei7 -march=x86-64 -g -Og
REM COMMAND_LINE
REM seed 1531697 -2065049978 864308152 -66232546 1684073092 -2026253528 569670237 1794085756 1396075870 863037093 -1234186198 -103994055
REM
REM S 3|1.8|5|6|7|30:31:32(qc=5)
REM O 2|1.5|12|13|15|20:21(qc=5)
REM Li 1|1.3|8|9|10|10U:20(qc=5)
REM Fe 3|2.2|2.0|1.0|8|9|10|40:41:32(qc=5)
REM 
CELL 1.54180    7.59842    7.59842    9.55708   90.00000   90.00000   90.00000
LATT -1
SFAC Li O  S  Fe 
Li     1 -0.1400690000000 -0.3769110000000  0.4088090000000 1.0  -0.02
Li     1  0.1400690000000  0.3769110000000  0.4088090000000 1.0  -0.02
Li     1 -0.3769110000000  0.1400690000000  0.4088090000000 1.0  -0.02
Li     1  0.3769110000000 -0.1400690000000  0.4088090000000 1.0  -0.02
Li     1  0.0011930000000 -0.2815450000000  0.0868610000000 1.0   0.01
Li     1 -0.0011930000000  0.2815450000000  0.0868610000000 1.0   0.01
Li     1 -0.2815450000000 -0.0011930000000  0.0868610000000 1.0   0.01
Li     1  0.2815450000000  0.0011930000000  0.0868610000000 1.0   0.01
O      2  0.5000000000000  0.0000000000000  0.1699220000000 1.0  -0.26
O      2  0.0000000000000 -0.5000000000000  0.1699220000000 1.0  -0.26
S      3  0.2531550000000  0.2563760000000 -0.0457040000000 1.0  -0.30
S      3 -0.2531550000000 -0.2563760000000 -0.0457040000000 1.0  -0.30
S      3  0.2563760000000 -0.2531550000000 -0.0457040000000 1.0  -0.30
S      3 -0.2563760000000  0.2531550000000 -0.0457040000000 1.0  -0.30
S      3  0.1565500000000 -0.3305790000000 -0.4902490000000 1.0  -0.39
S      3 -0.1565500000000  0.3305790000000 -0.4902490000000 1.0  -0.39
S      3 -0.3305790000000 -0.1565500000000 -0.4902490000000 1.0  -0.39
S      3  0.3305790000000  0.1565500000000 -0.4902490000000 1.0  -0.39
Fe     4  0.2554880000000 -0.4982600000000  0.0886800000000 1.0  -3.32
Fe     4 -0.2554880000000  0.4982600000000  0.0886800000000 1.0  -3.32
Fe     4 -0.4982600000000 -0.2554880000000  0.0886800000000 1.0  -3.32
Fe     4  0.4982600000000  0.2554880000000  0.0886800000000 1.0  -3.32
Fe     4  0.0000000000000  0.5000000000000 -0.3583770000000 1.0  -3.62
Fe     4  0.5000000000000 -0.0000000000000 -0.3583770000000 1.0  -3.62
END
