TITL LFSO-LiFe3S4O-200909-065749-814d14 -0.0096 121.106918 -4.44344049E+003 4.86544 5.51386 9 (R3m) n - 1
REM
REM Run started: Wed, 09 Sep 2020 07:38:56 +0100 in /lustre/scratch/uccabz1/launch_tmp/launcher_2020-09-09-05-57-47-325012
REM CASTEP 20.1 from code version af48c487+ pr-geom-scf-spinfix Tue Jun 2 15:39:59 2020 +0100
REM Functional Perdew Burke Ernzerhof Relativity Koelling-Harmon Dispersion off
REM Cut-off 340.0000 eV Grid scale 1.7500 Gmax 16.5316 1/A FBSC none
REM MP grid 3 3 3 Offset 0.000 0.000 0.000 No. kpts 6 Spacing 0.07
REM Total runtime: 2561.72 s
REM Overall efficiency: 91.25 %
REM
REM
REM
REM compiler GCC version 4.9.2
REM options -cpp -iprefix /lustre/shared/ucl/apps/gcc/4.9.2/bin/../lib/gcc/x86_64-unknown-linux-gnu/4.9.2/ -mtune=corei7 -march=x86-64 -g -Og
REM COMMAND_LINE
REM seed -581155158 664212245 -609532442 -103570238 1773697758 -2136818753 -1583285882 1369791786 -1327234786 1674183036 -638836170 1611722949
REM
REM S 3|1.8|5|6|7|30:31:32(qc=5)
REM O 2|1.5|12|13|15|20:21(qc=5)
REM Li 1|1.3|8|9|10|10U:20(qc=5)
REM Fe 3|2.2|2.0|1.0|8|9|10|40:41:32(qc=5)
REM 
CELL 1.54180    4.97440    4.97440    4.97440   83.85086   83.85086   83.85086
LATT -1
SFAC Li O  S  Fe 
Li     1 -0.4561950000000 -0.4561950000000 -0.4561950000000 1.0  -0.01
O      2  0.1500950000000  0.1500950000000  0.1500950000000 1.0  -0.05
S      3 -0.4504290000000  0.5480210000000  0.0494840000000 1.0   0.02
S      3  0.0494840000000 -0.4504290000000  0.5480210000000 1.0   0.02
S      3  0.5480210000000  0.0494840000000 -0.4504290000000 1.0   0.02
S      3 -0.0323540000000 -0.0323540000000 -0.0323540000000 1.0  -0.16
Fe     4  0.0719130000000  0.5514870000000  0.0718860000000 1.0   1.67
Fe     4  0.0718860000000  0.0719130000000  0.5514870000000 1.0   1.67
Fe     4  0.5514870000000  0.0718860000000  0.0719130000000 1.0   1.67
END
