TITL LFSO-Li3Fe3S2O4-200929-173507-36fc22 0.0023 210.610994 -5.54817014E+003 -2.98663 8.85000 12 (Immm) n - 1
REM
REM Run started: Tue, 29 Sep 2020 21:00:04 +0100 in /lustre/scratch/uccabz1/launch_tmp/launcher_2020-09-29-16-35-04-428368
REM CASTEP 20.1 from code version af48c487+ pr-geom-scf-spinfix Tue Jun 2 15:39:59 2020 +0100
REM Functional Perdew Burke Ernzerhof Relativity Koelling-Harmon Dispersion off
REM Cut-off 340.0000 eV Grid scale 1.7500 Gmax 16.5316 1/A FBSC none
REM MP grid 3 3 3 Offset 0.000 0.000 0.000 No. kpts 8 Spacing 0.07
REM Total runtime: 13381 s
REM Overall efficiency: 95.3333 %
REM
REM
REM
REM compiler GCC version 4.9.2
REM options -cpp -iprefix /lustre/shared/ucl/apps/gcc/4.9.2/bin/../lib/gcc/x86_64-unknown-linux-gnu/4.9.2/ -mtune=corei7 -march=x86-64 -g -Og
REM COMMAND_LINE
REM seed 957362056 -842937973 -1108411182 1221808661 1549792645 1914275285 1474200332 -1434469309 680834531 -107185009 1113444765 140290227
REM
REM S 3|1.8|5|6|7|30:31:32(qc=5)
REM O 2|1.5|12|13|15|20:21(qc=5)
REM Li 1|1.3|8|9|10|10U:20(qc=5)
REM Fe 3|2.2|2.0|1.0|8|9|10|40:41:32(qc=5)
REM 
CELL 1.54180    6.59801    6.59801    6.59801  114.54566   95.15084  119.65680
LATT -1
SFAC Li O  S  Fe 
Li     1  0.1644320000000 -0.5000000000000 -0.3355680000000 1.0   0.05
Li     1 -0.1644320000000  0.5000000000000  0.3355680000000 1.0   0.05
Li     1 -0.5000000000000 -0.5000000000000  0.0000000000000 1.0  -0.04
O      2  0.4532630000000 -0.1970890000000  0.6500570000000 1.0  -0.08
O      2  0.1528540000000 -0.1967940000000 -0.6500570000000 1.0  -0.08
O      2 -0.1528540000000  0.1970890000000 -0.3496480000000 1.0  -0.08
O      2 -0.4532630000000  0.1967940000000  0.3496480000000 1.0  -0.08
S      3  0.1937170000000  0.1937170000000  0.0000000000000 1.0   0.02
S      3 -0.1937170000000 -0.1937170000000  0.0000000000000 1.0   0.02
Fe     4  0.2052790000000  0.0000000000000  0.2052790000000 1.0  -2.67
Fe     4 -0.2052790000000  0.0000000000000 -0.2052790000000 1.0  -2.67
Fe     4  0.5000000000000  0.0000000000000  0.5000000000000 1.0   2.56
END
