TITL LFSO-Li2Fe2S3O-200913-033739-d6e218 -0.0465 278.874192 -6.95186999E+003 12.5427 12.9640 16 (P-1) n - 1
REM
REM Run started: Sun, 13 Sep 2020 14:17:39 +0100 in /lustre/scratch/uccabz1/launch_tmp/launcher_2020-09-13-02-37-38-109465
REM CASTEP 20.1 from code version af48c487+ pr-geom-scf-spinfix Tue Jun 2 15:39:59 2020 +0100
REM Functional Perdew Burke Ernzerhof Relativity Koelling-Harmon Dispersion off
REM Cut-off 340.0000 eV Grid scale 1.7500 Gmax 16.5316 1/A FBSC none
REM MP grid 4 3 2 Offset 0.000 0.000 0.000 No. kpts 12 Spacing 0.07
REM Total runtime: 38554.7 s
REM Overall efficiency: 97 %
REM
REM
REM
REM compiler GCC version 4.9.2
REM options -cpp -iprefix /lustre/shared/ucl/apps/gcc/4.9.2/bin/../lib/gcc/x86_64-unknown-linux-gnu/4.9.2/ -mtune=corei7 -march=x86-64 -g -Og
REM COMMAND_LINE
REM seed -1903815317 -1293836705 -1139028127 2065896702 1710929328 -1889225629 -476905017 1733083856 1981751755 -1221488201 -342187863 535840366
REM
REM S 3|1.8|5|6|7|30:31:32(qc=5)
REM O 2|1.5|12|13|15|20:21(qc=5)
REM Li 1|1.3|8|9|10|10U:20(qc=5)
REM Fe 3|2.2|2.0|1.0|8|9|10|40:41:32(qc=5)
REM 
CELL 1.54180    3.83563    6.74632   11.47942  107.99294   98.86452   89.64066
LATT -1
SFAC Li O  S  Fe 
Li     1  0.1675820000000 -0.3932820000000 -0.1962240000000 1.0  -0.05
Li     1 -0.1675820000000  0.3932820000000  0.1962240000000 1.0  -0.05
Li     1  0.3530000000000 -0.5428150000000  0.3644030000000 1.0  -0.00
Li     1 -0.3530000000000  0.5428150000000 -0.3644030000000 1.0  -0.00
O      2 -0.3239250000000 -0.4032720000000 -0.1784730000000 1.0   0.21
O      2  0.3239250000000  0.4032720000000  0.1784730000000 1.0   0.21
S      3 -0.1320820000000  0.2500630000000  0.3976790000000 1.0   0.00
S      3  0.1320820000000 -0.2500630000000 -0.3976790000000 1.0   0.00
S      3  0.1238580000000  0.3067730000000 -0.4299490000000 1.0   0.00
S      3 -0.1238580000000 -0.3067730000000  0.4299490000000 1.0   0.00
S      3 -0.3005070000000  0.0849430000000 -0.1103060000000 1.0   0.19
S      3  0.3005070000000 -0.0849430000000  0.1103060000000 1.0   0.19
Fe     4 -0.2551220000000 -0.1832240000000 -0.0109610000000 1.0   3.04
Fe     4  0.2551220000000  0.1832240000000  0.0109610000000 1.0   3.04
Fe     4  0.2811690000000 -0.4298240000000  0.0742460000000 1.0   2.88
Fe     4 -0.2811690000000  0.4298240000000 -0.0742460000000 1.0   2.88
END
