TITL LFSO-Li4Fe3S2O3-201001-151129-01330d -0.0188 199.606271 -5.30537255E+003 9.82233 10.3702 12 (Immm) n - 1
REM
REM Run started: Thu, 01 Oct 2020 17:40:57 +0100 in /lustre/scratch/uccabz1/launch_tmp/launcher_2020-10-01-14-11-27-637737
REM CASTEP 20.1 from code version af48c487+ pr-geom-scf-spinfix Tue Jun 2 15:39:59 2020 +0100
REM Functional Perdew Burke Ernzerhof Relativity Koelling-Harmon Dispersion off
REM Cut-off 340.0000 eV Grid scale 1.7500 Gmax 16.5316 1/A FBSC none
REM MP grid 4 3 3 Offset 0.000 0.000 0.000 No. kpts 12 Spacing 0.07
REM Total runtime: 10235 s
REM Overall efficiency: 92.25 %
REM
REM
REM
REM compiler GCC version 4.9.2
REM options -cpp -iprefix /lustre/shared/ucl/apps/gcc/4.9.2/bin/../lib/gcc/x86_64-unknown-linux-gnu/4.9.2/ -mtune=corei7 -march=x86-64 -g -Og
REM COMMAND_LINE
REM seed -201099598 1336171267 -819177378 -1693095359 -1011384345 1677017836 557677515 -1437613213 67779111 -1707130284 -56198951 689736944
REM
REM S 3|1.8|5|6|7|30:31:32(qc=5)
REM O 2|1.5|12|13|15|20:21(qc=5)
REM Li 1|1.3|8|9|10|10U:20(qc=5)
REM Fe 3|2.2|2.0|1.0|8|9|10|40:41:32(qc=5)
REM 
CELL 1.54180    4.30207    7.45548    7.56654  119.51560  106.51590   90.00000
LATT -1
SFAC Li O  S  Fe 
Li     1 -0.3801330000000 -0.1555910000000  0.2492780000000 1.0  -0.14
Li     1  0.3801330000000 -0.4048690000000 -0.2492780000000 1.0  -0.14
Li     1 -0.3705900000000  0.4048690000000  0.2492780000000 1.0  -0.14
Li     1  0.3705900000000  0.1555910000000 -0.2492780000000 1.0  -0.14
O      2 -0.3473150000000  0.1526850000000  0.3053700000000 1.0   0.14
O      2  0.3473150000000 -0.1526850000000 -0.3053700000000 1.0   0.14
O      2  0.0000000000000 -0.0000000000000  0.0000000000000 1.0   0.32
S      3  0.2343760000000 -0.5000000000000  0.0000000000000 1.0   0.10
S      3 -0.2343760000000  0.5000000000000  0.0000000000000 1.0   0.10
Fe     4  0.1533530000000  0.1533530000000  0.3067050000000 1.0   3.46
Fe     4 -0.1533530000000 -0.1533530000000 -0.3067050000000 1.0   3.46
Fe     4  0.5000000000000 -0.0000000000000  0.0000000000000 1.0   2.68
END
