TITL LFSO-Li2Fe4S3O2-200912-051948-f666af -0.0036 161.132301 -5.63532043E+003 10.5253 11.5511 11 (C222) n - 1
REM
REM Run started: Sat, 12 Sep 2020 06:47:53 +0100 in /lustre/scratch/uccabz1/launch_tmp/launcher_2020-09-12-04-19-46-052037
REM CASTEP 20.1 from code version af48c487+ pr-geom-scf-spinfix Tue Jun 2 15:39:59 2020 +0100
REM Functional Perdew Burke Ernzerhof Relativity Koelling-Harmon Dispersion off
REM Cut-off 340.0000 eV Grid scale 1.7500 Gmax 16.5316 1/A FBSC none
REM MP grid 3 3 3 Offset 0.000 0.000 0.000 No. kpts 8 Spacing 0.07
REM Total runtime: 5330.96 s
REM Overall efficiency: 93.625 %
REM
REM
REM
REM compiler GCC version 4.9.2
REM options -cpp -iprefix /lustre/shared/ucl/apps/gcc/4.9.2/bin/../lib/gcc/x86_64-unknown-linux-gnu/4.9.2/ -mtune=corei7 -march=x86-64 -g -Og
REM COMMAND_LINE
REM seed -183067719 -1753547344 839066373 -574883154 154961873 -752552307 -1927580433 -540427947 2087922879 1027744087 103230592 -237242141
REM
REM S 3|1.8|5|6|7|30:31:32(qc=5)
REM O 2|1.5|12|13|15|20:21(qc=5)
REM Li 1|1.3|8|9|10|10U:20(qc=5)
REM Fe 3|2.2|2.0|1.0|8|9|10|40:41:32(qc=5)
REM 
CELL 1.54180    5.16621    5.60183    6.23258  116.70510   90.00000   90.00000
LATT -1
SFAC Li O  S  Fe 
Li     1  0.0000000000000 -0.2861370000000  0.4277260000000 1.0  -0.19
Li     1  0.0000000000000  0.2861370000000 -0.4277260000000 1.0  -0.19
O      2  0.5000000000000 -0.1406740000000 -0.2813490000000 1.0   0.25
O      2 -0.5000000000000  0.1406750000000  0.2813490000000 1.0   0.25
S      3 -0.5000000000000  0.4039410000000 -0.1921190000000 1.0  -0.05
S      3  0.5000000000000 -0.4039400000000  0.1921190000000 1.0  -0.05
S      3  0.0000000000000 -0.5000000000000  0.0000000000000 1.0   0.01
Fe     4 -0.2258230000000 -0.0825130000000  0.1446640000000 1.0   2.63
Fe     4 -0.2258230000000  0.0825130000000 -0.1446640000000 1.0   2.63
Fe     4  0.2258230000000  0.2271760000000  0.1446640000000 1.0   2.63
Fe     4  0.2258230000000 -0.2271760000000 -0.1446640000000 1.0   2.63
END
