TITL LFSO-Li4Fe3S3O2-200926-120013-538218 0.0739 459.030059 -1.03509545E+004 1.34275 1.72028 24 (P2) n - 1
REM
REM Run started: Mon, 28 Sep 2020 16:13:24 +0100 in /scratch/scratch/uccabz1/launch_tmp/launcher_2020-09-28-12-57-36-945160
REM CASTEP 19.11| from code version Version unavailable
REM Functional Perdew Burke Ernzerhof Relativity Koelling-Harmon Dispersion off
REM Cut-off 340.0000 eV Grid scale 1.7500 Gmax 16.5316 1/A FBSC none
REM MP grid 4 2 1 Offset 0.000 0.000 0.000 No. kpts 2 Spacing 0.07
REM Total runtime: 144611 s
REM Overall efficiency: 89.1667 %
REM
REM
REM
REM compiler GCC version 4.9.2
REM options -cpp -iprefix /lustre/shared/ucl/apps/gcc/4.9.2/bin/../lib/gcc/x86_64-unknown-linux-gnu/4.9.2/ -mtune=corei7 -march=x86-64 -g -Og
REM COMMAND_LINE
REM seed -134921743 1595042882 211877041 -1541199060 496610251 1003787145 -541108452 -482687030 1562258096 181261776 1631970884 1945327349
REM
REM S 3|1.8|5|6|7|30:31:32(qc=5)
REM O 2|1.5|12|13|15|20:21(qc=5)
REM Li 1|1.3|8|9|10|10U:20(qc=5)
REM Fe 3|2.2|2.0|1.0|8|9|10|40:41:32(qc=5)
REM 
CELL 1.54180    4.24400    7.57136   14.30042   87.37142   90.00000   90.00000
LATT -1
SFAC Li O  S  Fe 
Li     1 -0.1318000000000 -0.1131070000000  0.4530940000000 1.0   0.00
Li     1 -0.1318000000000  0.1131070000000 -0.4530940000000 1.0   0.00
Li     1 -0.1909010000000  0.3508590000000  0.3935840000000 1.0  -0.00
Li     1 -0.1909010000000 -0.3508590000000 -0.3935840000000 1.0  -0.00
Li     1  0.3116250000000 -0.1449590000000 -0.3909620000000 1.0   0.00
Li     1  0.3116250000000  0.1449590000000  0.3909620000000 1.0   0.00
Li     1 -0.2330510000000  0.1955840000000  0.2502120000000 1.0   0.00
Li     1 -0.2330510000000 -0.1955840000000 -0.2502120000000 1.0   0.00
O      2 -0.5602130000000  0.3245230000000  0.3077730000000 1.0   0.01
O      2 -0.5602130000000 -0.3245230000000 -0.3077730000000 1.0   0.01
O      2 -0.1118520000000  0.1222810000000  0.4172010000000 1.0  -0.00
O      2 -0.1118520000000 -0.1222810000000 -0.4172010000000 1.0  -0.00
S      3 -0.1371710000000  0.2011730000000  0.0868670000000 1.0   0.00
S      3 -0.1371710000000 -0.2011730000000 -0.0868670000000 1.0   0.00
S      3  0.3609240000000 -0.3541510000000  0.1473270000000 1.0  -0.03
S      3  0.3609240000000  0.3541510000000 -0.1473270000000 1.0  -0.03
S      3 -0.1162560000000 -0.3578030000000  0.3412640000000 1.0   0.01
S      3 -0.1162560000000  0.3578030000000 -0.3412640000000 1.0   0.01
Fe     4  0.1224020000000 -0.4458980000000 -0.0710090000000 1.0   0.15
Fe     4  0.1224020000000  0.4458980000000  0.0710090000000 1.0   0.15
Fe     4 -0.3891150000000  0.4486110000000  0.0689110000000 1.0   0.48
Fe     4 -0.3891150000000 -0.4486110000000 -0.0689110000000 1.0   0.48
Fe     4  0.3660740000000  0.4455700000000 -0.2882630000000 1.0   0.05
Fe     4  0.3660740000000 -0.4455700000000  0.2882630000000 1.0   0.05
END
