TITL LFSO-Li5FeS3O-200910-104535-3d6104 0.9287 366.166331 -6.42937339E+003 -5.99987 6.53078 20 (Pc) n - 1
REM
REM Run started: Thu, 10 Sep 2020 23:47:40 +0100 in /lustre/scratch/uccabz1/launch_tmp/launcher_2020-09-10-09-45-33-314662
REM CASTEP 20.1 from code version af48c487+ pr-geom-scf-spinfix Tue Jun 2 15:39:59 2020 +0100
REM Functional Perdew Burke Ernzerhof Relativity Koelling-Harmon Dispersion off
REM Cut-off 340.0000 eV Grid scale 1.7500 Gmax 16.5316 1/A FBSC none
REM MP grid 4 3 2 Offset 0.000 0.000 0.000 No. kpts 8 Spacing 0.07
REM Total runtime: 51646.1 s
REM Overall efficiency: 98 %
REM
REM
REM
REM compiler GCC version 4.9.2
REM options -cpp -iprefix /lustre/shared/ucl/apps/gcc/4.9.2/bin/../lib/gcc/x86_64-unknown-linux-gnu/4.9.2/ -mtune=corei7 -march=x86-64 -g -Og
REM COMMAND_LINE
REM seed -2127125377 1851434652 1528327715 1757519081 -1417160217 -1371110719 518214694 -1485865493 -278918544 -1447526931 365152271 -1490758972
REM
REM S 3|1.8|5|6|7|30:31:32(qc=5)
REM O 2|1.5|12|13|15|20:21(qc=5)
REM Li 1|1.3|8|9|10|10U:20(qc=5)
REM Fe 3|2.2|2.0|1.0|8|9|10|40:41:32(qc=5)
REM 
CELL 1.54180    6.85303    4.94412   16.35567   90.00000  138.64272   90.00000
LATT -1
SFAC Li O  S  Fe 
Li     1 -0.0270520000000 -0.4001830000000 -0.3037050000000 1.0  -0.01
Li     1  0.4729480000000  0.4001830000000 -0.3037050000000 1.0  -0.01
Li     1 -0.2602120000000  0.0872490000000  0.4324810000000 1.0  -0.01
Li     1  0.2397880000000 -0.0872490000000  0.4324810000000 1.0  -0.01
Li     1 -0.1968660000000 -0.0586180000000  0.1346380000000 1.0  -0.01
Li     1  0.3031340000000  0.0586180000000  0.1346380000000 1.0  -0.01
Li     1  0.3368640000000 -0.4319470000000  0.2196600000000 1.0   0.00
Li     1 -0.1631360000000  0.4319470000000  0.2196600000000 1.0   0.00
Li     1  0.2289910000000 -0.3341430000000 -0.0402650000000 1.0   0.03
Li     1 -0.2710090000000  0.3341430000000 -0.0402650000000 1.0   0.03
O      2  0.2120910000000 -0.1577180000000 -0.1668490000000 1.0  -0.16
O      2 -0.2879090000000  0.1577180000000 -0.1668490000000 1.0  -0.16
S      3  0.2373030000000  0.2177900000000  0.2865470000000 1.0  -0.01
S      3 -0.2626970000000 -0.2177900000000  0.2865470000000 1.0  -0.01
S      3  0.5759220000000 -0.1970300000000 -0.3516880000000 1.0  -0.13
S      3  0.0759220000000  0.1970300000000 -0.3516880000000 1.0  -0.13
S      3 -0.6286670000000  0.2243410000000  0.0146750000000 1.0  -0.05
S      3 -0.1286670000000 -0.2243410000000  0.0146750000000 1.0  -0.05
Fe     4 -0.0563790000000  0.0426850000000 -0.1813270000000 1.0  -2.64
Fe     4 -0.5563790000000 -0.0426850000000 -0.1813270000000 1.0  -2.64
END
