TITL LFSO-Li3Fe3S4O2-200929-212802-b8bb1f 0.0265 173.097309 -5.28330967E+003 8.43517 8.69127 12 (P-1) n - 1
REM
REM Run started: Wed, 30 Sep 2020 01:24:08 +0100 in /lustre/scratch/uccabz1/launch_tmp/launcher_2020-09-29-20-28-01-222413
REM CASTEP 20.1 from code version af48c487+ pr-geom-scf-spinfix Tue Jun 2 15:39:59 2020 +0100
REM Functional Perdew Burke Ernzerhof Relativity Koelling-Harmon Dispersion off
REM Cut-off 340.0000 eV Grid scale 1.7500 Gmax 16.5316 1/A FBSC none
REM MP grid 4 3 2 Offset 0.000 0.000 0.000 No. kpts 12 Spacing 0.07
REM Total runtime: 14233.2 s
REM Overall efficiency: 95.7143 %
REM
REM
REM
REM compiler GCC version 4.9.2
REM options -cpp -iprefix /lustre/shared/ucl/apps/gcc/4.9.2/bin/../lib/gcc/x86_64-unknown-linux-gnu/4.9.2/ -mtune=corei7 -march=x86-64 -g -Og
REM COMMAND_LINE
REM seed -592382872 -1082791080 683127953 616067847 -984805681 668399970 1524349803 1875492455 -482981809 443720254 1647141670 901257981
REM
REM S 3|1.8|5|6|7|30:31:32(qc=5)
REM O 2|1.5|12|13|15|20:21(qc=5)
REM Li 1|1.3|8|9|10|10U:20(qc=5)
REM Fe 3|2.2|2.0|1.0|8|9|10|40:41:32(qc=5)
REM 
CELL 1.54180    3.79953    6.21636    8.24028  112.35966   82.72982  105.84871
LATT -1
SFAC Li O  S  Fe 
Li     1  0.3212450000000 -0.3608540000000  0.0080490000000 1.0  -0.01
Li     1 -0.3212450000000  0.3608540000000 -0.0080490000000 1.0  -0.01
Li     1  0.5000000000000 -0.5000000000000  0.5000000000000 1.0   0.04
O      2 -0.1529360000000 -0.2719880000000  0.0667540000000 1.0   0.12
O      2  0.1529360000000  0.2719880000000 -0.0667540000000 1.0   0.12
S      3  0.4607160000000 -0.1616480000000 -0.2178590000000 1.0   0.17
S      3 -0.4607160000000  0.1616480000000  0.2178590000000 1.0   0.17
S      3  0.0746020000000 -0.2479160000000  0.4279700000000 1.0   0.07
S      3 -0.0746020000000  0.2479160000000 -0.4279700000000 1.0   0.07
Fe     4  0.0765450000000  0.0239570000000 -0.2991520000000 1.0   2.64
Fe     4 -0.0765450000000 -0.0239570000000  0.2991520000000 1.0   2.64
Fe     4  0.0000000000000  0.0000000000000  0.0000000000000 1.0   2.45
END
