TITL LFSO-Li3Fe3S5O-200929-091013-22d9c5 0.0232 254.088354 -5.14379366E+003 -0.681689E-02 0.856020E-02 12 (I4mm) n - 1
REM
REM Run started: Tue, 29 Sep 2020 12:46:19 +0100 in /lustre/scratch/uccabz1/launch_tmp/launcher_2020-09-29-08-10-10-747915
REM CASTEP 20.1 from code version af48c487+ pr-geom-scf-spinfix Tue Jun 2 15:39:59 2020 +0100
REM Functional Perdew Burke Ernzerhof Relativity Koelling-Harmon Dispersion off
REM Cut-off 340.0000 eV Grid scale 1.7500 Gmax 16.5316 1/A FBSC none
REM MP grid 3 3 3 Offset 0.000 0.000 0.000 No. kpts 6 Spacing 0.07
REM Total runtime: 13014.1 s
REM Overall efficiency: 91.5 %
REM
REM
REM
REM compiler GCC version 4.9.2
REM options -cpp -iprefix /lustre/shared/ucl/apps/gcc/4.9.2/bin/../lib/gcc/x86_64-unknown-linux-gnu/4.9.2/ -mtune=corei7 -march=x86-64 -g -Og
REM COMMAND_LINE
REM seed -1809996702 934007861 -1264782518 2123042461 1137267606 -159913130 -196980770 -979996823 1407908633 1298570127 578661181 215843151
REM
REM S 3|1.8|5|6|7|30:31:32(qc=5)
REM O 2|1.5|12|13|15|20:21(qc=5)
REM Li 1|1.3|8|9|10|10U:20(qc=5)
REM Fe 3|2.2|2.0|1.0|8|9|10|40:41:32(qc=5)
REM 
CELL 1.54180    6.07563    6.07563    8.11403  111.98659  111.98659   90.00000
LATT -1
SFAC Li O  S  Fe 
Li     1 -0.0546360000000  0.4453640000000  0.8907290000000 1.0
Li     1  0.4453640000000 -0.0546360000000 -0.1092710000000 1.0
Li     1  0.1069020000000  0.1069020000000  0.2138030000000 1.0
O      2 -0.5734090000000 -0.5734090000000 -1.1468180000000 1.0
S      3 -0.5305280000000  0.4694720000000 -0.5231250000000 1.0
S      3  0.0074040000000  0.0074040000000  0.4768750000000 1.0
S      3  0.4694720000000  0.0074040000000  0.4768750000000 1.0
S      3  0.0074040000000 -0.5305280000000 -0.5231250000000 1.0
S      3 -0.0540920000000 -0.0540920000000 -0.1081840000000 1.0
Fe     4 -0.2664610000000  0.2335390000000  0.4670780000000 1.0
Fe     4  0.2335390000000 -0.2664610000000  0.4670780000000 1.0
Fe     4  0.3063660000000  0.3063660000000  0.6127310000000 1.0
END
