TITL LFSO-Li3FeS2O-200911-180227-d4b7fb -0.0050 107.009318 -2.50381011E+003 2.82515 3.10894 7 (F222) n - 1
REM
REM Run started: Fri, 11 Sep 2020 18:17:10 +0100 in /lustre/scratch/uccabz1/launch_tmp/launcher_2020-09-11-17-02-25-555163
REM CASTEP 20.1 from code version af48c487+ pr-geom-scf-spinfix Tue Jun 2 15:39:59 2020 +0100
REM Functional Perdew Burke Ernzerhof Relativity Koelling-Harmon Dispersion off
REM Cut-off 340.0000 eV Grid scale 1.7500 Gmax 16.5316 1/A FBSC none
REM MP grid 4 4 3 Offset 0.000 0.000 0.000 No. kpts 16 Spacing 0.07
REM Total runtime: 946.73 s
REM Overall efficiency: 88.6 %
REM
REM
REM
REM compiler GCC version 4.9.2
REM options -cpp -iprefix /lustre/shared/ucl/apps/gcc/4.9.2/bin/../lib/gcc/x86_64-unknown-linux-gnu/4.9.2/ -mtune=corei7 -march=x86-64 -g -Og
REM COMMAND_LINE
REM seed 1730382752 2126899363 -1433159923 -1603370040 -1116443189 -760501603 -72185643 1521467068 -961807329 1536793569 -1258223300 -549093978
REM
REM S 3|1.8|5|6|7|30:31:32(qc=5)
REM O 2|1.5|12|13|15|20:21(qc=5)
REM Li 1|1.3|8|9|10|10U:20(qc=5)
REM Fe 3|2.2|2.0|1.0|8|9|10|40:41:32(qc=5)
REM 
CELL 1.54180    4.63306    4.63306    6.09545  101.98540  101.98540  116.97375
LATT -1
SFAC Li O  S  Fe 
Li     1  0.5425970000000  0.4574030000000  0.5000000000000 1.0  -0.09
Li     1 -0.0425970000000  0.0425970000000  0.5000000000000 1.0  -0.09
Li     1  0.2500000000000 -0.2500000000000 -0.5000000000000 1.0   0.02
O      2 -0.2500000000000  0.2500000000000  0.5000000000000 1.0   0.03
S      3  0.0282350000000 -0.4717650000000 -0.9435300000000 1.0   0.08
S      3  0.4717650000000 -0.0282350000000 -0.0564700000000 1.0   0.08
Fe     4 -0.0000000000000  0.0000000000000  0.0000000000000 1.0   2.80
END
