TITL LFSO-Li2Fe2S3O-200913-064603-be5e31 0.3627 298.162999 -6.95475926E+003 9.41884 15.0176 16 (R3) n - 1
REM
REM Run started: Sun, 13 Sep 2020 17:33:15 +0100 in /lustre/scratch/uccabz1/launch_tmp/launcher_2020-09-13-05-46-01-923225
REM CASTEP 20.1 from code version af48c487+ pr-geom-scf-spinfix Tue Jun 2 15:39:59 2020 +0100
REM Functional Perdew Burke Ernzerhof Relativity Koelling-Harmon Dispersion off
REM Cut-off 340.0000 eV Grid scale 1.7500 Gmax 16.5316 1/A FBSC none
REM MP grid 3 3 3 Offset 0.000 0.000 0.000 No. kpts 6 Spacing 0.07
REM Total runtime: 43010 s
REM Overall efficiency: 98.3333 %
REM
REM
REM
REM compiler GCC version 4.9.2
REM options -cpp -iprefix /lustre/shared/ucl/apps/gcc/4.9.2/bin/../lib/gcc/x86_64-unknown-linux-gnu/4.9.2/ -mtune=corei7 -march=x86-64 -g -Og
REM COMMAND_LINE
REM seed 536623816 -388848525 -433170914 695370700 718442210 -1816938049 -1458565774 -710695059 964865797 1649297736 2086114625 -1288101613
REM
REM S 3|1.8|5|6|7|30:31:32(qc=5)
REM O 2|1.5|12|13|15|20:21(qc=5)
REM Li 1|1.3|8|9|10|10U:20(qc=5)
REM Fe 3|2.2|2.0|1.0|8|9|10|40:41:32(qc=5)
REM 
CELL 1.54180    8.04707    8.04707    8.04707   51.88718   51.88718   51.88718
LATT -1
SFAC Li O  S  Fe 
Li     1  0.0438330000000 -0.1325710000000  0.5683030000000 1.0   0.03
Li     1 -0.1325710000000  0.5683030000000  0.0438330000000 1.0   0.03
Li     1  0.5683030000000  0.0438330000000 -0.1325710000000 1.0   0.03
Li     1  0.4343770000000  0.4343770000000  0.4343770000000 1.0   0.06
O      2 -0.2143550000000 -0.2143550000000 -0.2143550000000 1.0  -0.30
O      2  0.3186600000000  0.3186600000000  0.3186600000000 1.0   0.36
S      3 -0.1468560000000 -0.1940370000000  0.3285470000000 1.0   0.10
S      3 -0.1940370000000  0.3285470000000 -0.1468560000000 1.0   0.10
S      3  0.3285470000000 -0.1468560000000 -0.1940370000000 1.0   0.10
S      3  0.4214450000000 -0.1595080000000  0.2838950000000 1.0   0.39
S      3 -0.1595080000000  0.2838950000000  0.4214450000000 1.0   0.39
S      3  0.2838950000000  0.4214450000000 -0.1595080000000 1.0   0.39
Fe     4 -0.0217790000000  0.4136030000000 -0.5352540000000 1.0   3.42
Fe     4  0.4136030000000 -0.5352540000000 -0.0217790000000 1.0   3.42
Fe     4 -0.5352540000000 -0.0217790000000  0.4136030000000 1.0   3.42
Fe     4 -0.2995510000000 -0.2995510000000 -0.2995510000000 1.0  -2.53
END
