TITL LFSO-Li2Fe2S3O-200913-035644-16f219 0.0069 177.665530 -3.47526133E+003 -0.413914E-04 0.585688E-02 8 (R3) n - 1
REM
REM Run started: Sun, 13 Sep 2020 05:19:43 +0100 in /lustre/scratch/uccabz1/launch_tmp/launcher_2020-09-13-02-56-42-374351
REM CASTEP 20.1 from code version af48c487+ pr-geom-scf-spinfix Tue Jun 2 15:39:59 2020 +0100
REM Functional Perdew Burke Ernzerhof Relativity Koelling-Harmon Dispersion off
REM Cut-off 340.0000 eV Grid scale 1.7500 Gmax 16.5316 1/A FBSC none
REM MP grid 3 3 3 Offset 0.000 0.000 0.000 No. kpts 6 Spacing 0.07
REM Total runtime: 5032.08 s
REM Overall efficiency: 92.875 %
REM
REM
REM
REM compiler GCC version 4.9.2
REM options -cpp -iprefix /lustre/shared/ucl/apps/gcc/4.9.2/bin/../lib/gcc/x86_64-unknown-linux-gnu/4.9.2/ -mtune=corei7 -march=x86-64 -g -Og
REM COMMAND_LINE
REM seed 253285339 348661154 2146402409 -1056272593 1858941404 2015803507 577282144 -1968681171 1582340180 -517614128 -1055444263 489673259
REM
REM S 3|1.8|5|6|7|30:31:32(qc=5)
REM O 2|1.5|12|13|15|20:21(qc=5)
REM Li 1|1.3|8|9|10|10U:20(qc=5)
REM Fe 3|2.2|2.0|1.0|8|9|10|40:41:32(qc=5)
REM 
CELL 1.54180    6.46863    6.46863    6.46863   56.89147   56.89147   56.89147
LATT -1
SFAC Li O  S  Fe 
Li     1  0.2679790000000  0.2679790000000  0.2679790000000 1.0
Li     1  0.5391430000000  0.5391430000000  0.5391430000000 1.0
O      2 -0.3483880000000 -0.3483880000000 -0.3483880000000 1.0
S      3 -0.1617640000000  0.1090870000000  0.4835680000000 1.0
S      3  0.4835680000000 -0.1617640000000  0.1090870000000 1.0
S      3  0.1090870000000  0.4835680000000 -0.1617640000000 1.0
Fe     4  0.1094280000000  0.1094280000000  0.1094280000000 1.0
Fe     4 -0.2463140000000 -0.2463140000000 -0.2463140000000 1.0
END
