TITL LFSO-Li6FeSO3-200909-215826-802769 -0.0447 281.408156 -7.36156400E+003 -8.00215 8.12235 22 (R3) n - 1
REM
REM Run started: Thu, 10 Sep 2020 01:35:14 +0100 in /lustre/scratch/uccabz1/launch_tmp/launcher_2020-09-09-20-58-24-118703
REM CASTEP 20.1 from code version af48c487+ pr-geom-scf-spinfix Tue Jun 2 15:39:59 2020 +0100
REM Functional Perdew Burke Ernzerhof Relativity Koelling-Harmon Dispersion off
REM Cut-off 340.0000 eV Grid scale 1.7500 Gmax 16.5316 1/A FBSC none
REM MP grid 3 3 3 Offset 0.000 0.000 0.000 No. kpts 6 Spacing 0.07
REM Total runtime: 13143.7 s
REM Overall efficiency: 93.4286 %
REM
REM
REM
REM compiler GCC version 4.9.2
REM options -cpp -iprefix /lustre/shared/ucl/apps/gcc/4.9.2/bin/../lib/gcc/x86_64-unknown-linux-gnu/4.9.2/ -mtune=corei7 -march=x86-64 -g -Og
REM COMMAND_LINE
REM seed 967835697 1688277015 1256037152 831863815 -594459330 -1379232814 -1500553869 -1858245079 -530589440 -2087956845 -1984086829 -795810729
REM
REM S 3|1.8|5|6|7|30:31:32(qc=5)
REM O 2|1.5|12|13|15|20:21(qc=5)
REM Li 1|1.3|8|9|10|10U:20(qc=5)
REM Fe 3|2.2|2.0|1.0|8|9|10|40:41:32(qc=5)
REM 
CELL 1.54180    7.02958    7.02958    7.02958   66.78213   66.78213   66.78213
LATT -1
SFAC Li O  S  Fe 
Li     1  0.4270360000000  0.5552600000000 -0.0990190000000 1.0   0.03
Li     1 -0.0990190000000  0.4270360000000  0.5552600000000 1.0   0.03
Li     1  0.5552600000000 -0.0990190000000  0.4270360000000 1.0   0.03
Li     1 -0.3368770000000  0.2024410000000 -0.0530130000000 1.0  -0.02
Li     1 -0.0530130000000 -0.3368770000000  0.2024410000000 1.0  -0.02
Li     1  0.2024410000000 -0.0530130000000 -0.3368770000000 1.0  -0.02
Li     1 -0.0736290000000  0.0554650000000  0.4007980000000 1.0   0.03
Li     1  0.4007980000000 -0.0736290000000  0.0554650000000 1.0   0.03
Li     1  0.0554650000000  0.4007980000000 -0.0736290000000 1.0   0.03
Li     1 -0.5526210000000  0.1631530000000 -0.2976150000000 1.0  -0.02
Li     1 -0.2976150000000 -0.5526210000000  0.1631530000000 1.0  -0.02
Li     1  0.1631530000000 -0.2976150000000 -0.5526210000000 1.0  -0.02
O      2 -0.0765660000000 -0.6341710000000  0.2866590000000 1.0  -0.16
O      2  0.2866590000000 -0.0765660000000 -0.6341710000000 1.0  -0.16
O      2 -0.6341710000000  0.2866590000000 -0.0765660000000 1.0  -0.16
O      2 -0.2135720000000  0.4235900000000 -0.1341440000000 1.0  -0.16
O      2 -0.1341440000000 -0.2135720000000  0.4235900000000 1.0  -0.16
O      2  0.4235900000000 -0.1341440000000 -0.2135720000000 1.0  -0.16
S      3  0.3759370000000  0.3759370000000  0.3759370000000 1.0  -0.10
S      3 -0.1240860000000 -0.1240860000000 -0.1240860000000 1.0  -0.10
Fe     4  0.2368670000000  0.2368670000000  0.2368670000000 1.0  -3.49
Fe     4 -0.2632500000000 -0.2632500000000 -0.2632500000000 1.0  -3.48
END
