TITL LFSO-Li3Fe3SO5-200926-175444-4eeb0c -0.0562 175.113482 -5.68067905E+003 7.99447 8.41798 12 (R3) n - 1
REM
REM Run started: Sat, 26 Sep 2020 19:12:40 +0100 in /lustre/scratch/uccabz1/launch_tmp/launcher_2020-09-26-16-54-43-267693
REM CASTEP 20.1 from code version af48c487+ pr-geom-scf-spinfix Tue Jun 2 15:39:59 2020 +0100
REM Functional Perdew Burke Ernzerhof Relativity Koelling-Harmon Dispersion off
REM Cut-off 340.0000 eV Grid scale 1.7500 Gmax 16.5316 1/A FBSC none
REM MP grid 3 3 3 Offset 0.000 0.000 0.000 No. kpts 6 Spacing 0.07
REM Total runtime: 4803.47 s
REM Overall efficiency: 94.625 %
REM
REM
REM
REM compiler GCC version 4.9.2
REM options -cpp -iprefix /lustre/shared/ucl/apps/gcc/4.9.2/bin/../lib/gcc/x86_64-unknown-linux-gnu/4.9.2/ -mtune=corei7 -march=x86-64 -g -Og
REM COMMAND_LINE
REM seed -769667219 826474129 1786379628 1324594761 967985593 -1305627957 1699990459 1654300218 -1182631553 -399508756 -943757618 -1883835605
REM
REM S 3|1.8|5|6|7|30:31:32(qc=5)
REM O 2|1.5|12|13|15|20:21(qc=5)
REM Li 1|1.3|8|9|10|10U:20(qc=5)
REM Fe 3|2.2|2.0|1.0|8|9|10|40:41:32(qc=5)
REM 
CELL 1.54180    5.61976    5.61976    5.61976   95.23589   95.23589   95.23589
LATT -1
SFAC Li O  S  Fe 
Li     1 -0.0171010000000  0.4533760000000  0.2166820000000 1.0  -0.04
Li     1  0.2166820000000 -0.0171010000000  0.4533760000000 1.0  -0.04
Li     1  0.4533760000000  0.2166820000000 -0.0171010000000 1.0  -0.04
O      2 -0.5515140000000 -0.0314180000000  0.7253620000000 1.0   0.11
O      2  0.7253620000000 -0.5515140000000 -0.0314180000000 1.0   0.11
O      2 -0.0314180000000  0.7253620000000 -0.5515140000000 1.0   0.11
O      2  0.2814320000000  0.2814320000000  0.2814320000000 1.0  -0.07
O      2 -0.1181800000000 -0.1181800000000 -0.1181800000000 1.0   0.10
S      3 -0.5223790000000 -0.5223790000000 -0.5223790000000 1.0  -0.07
Fe     4 -0.2844220000000 -0.1176300000000  0.5638000000000 1.0   2.61
Fe     4  0.5638000000000 -0.2844220000000 -0.1176300000000 1.0   2.61
Fe     4 -0.1176300000000  0.5638000000000 -0.2844220000000 1.0   2.61
END
