TITL LFSO-LiFe3S2O3-200909-190709-9638ca -0.0163 259.452946 -9.41961798E+003 16.8495 17.2551 18 (P2/c) n - 1
REM
REM Run started: Wed, 09 Sep 2020 23:08:52 +0100 in /lustre/scratch/uccabz1/launch_tmp/launcher_2020-09-09-18-07-07-380326
REM CASTEP 20.1 from code version af48c487+ pr-geom-scf-spinfix Tue Jun 2 15:39:59 2020 +0100
REM Functional Perdew Burke Ernzerhof Relativity Koelling-Harmon Dispersion off
REM Cut-off 340.0000 eV Grid scale 1.7500 Gmax 16.5316 1/A FBSC none
REM MP grid 4 4 2 Offset 0.000 0.000 0.000 No. kpts 8 Spacing 0.07
REM Total runtime: 14965 s
REM Overall efficiency: 95.1429 %
REM
REM
REM
REM compiler GCC version 4.9.2
REM options -cpp -iprefix /lustre/shared/ucl/apps/gcc/4.9.2/bin/../lib/gcc/x86_64-unknown-linux-gnu/4.9.2/ -mtune=corei7 -march=x86-64 -g -Og
REM COMMAND_LINE
REM seed 1362050928 1333285454 675394510 -1514988082 -369572722 28986404 -453081626 547491955 90896565 377940931 -1582905001 -256556511
REM
REM S 3|1.8|5|6|7|30:31:32(qc=5)
REM O 2|1.5|12|13|15|20:21(qc=5)
REM Li 1|1.3|8|9|10|10U:20(qc=5)
REM Fe 3|2.2|2.0|1.0|8|9|10|40:41:32(qc=5)
REM 
CELL 1.54180    4.51689    5.08837   12.76728   90.00000   90.00000  117.84877
LATT -1
SFAC Li O  S  Fe 
Li     1 -0.2500000000000  0.0000000000000  0.2301660000000 1.0  -0.08
Li     1  0.2500000000000  0.0000000000000 -0.2301660000000 1.0  -0.08
O      2 -0.3885140000000 -0.2767620000000  0.0899200000000 1.0   0.14
O      2 -0.1114860000000  0.2767620000000  0.0899200000000 1.0   0.14
O      2  0.3885140000000  0.2767620000000 -0.0899200000000 1.0   0.14
O      2  0.1114860000000 -0.2767620000000 -0.0899200000000 1.0   0.14
O      2 -0.2500000000000  0.0000000000000 -0.2301300000000 1.0   0.29
O      2  0.2500000000000  0.0000000000000  0.2301300000000 1.0   0.29
S      3 -0.3618750000000 -0.2139000000000  0.4317970000000 1.0  -0.02
S      3 -0.1381250000000  0.2139000000000  0.4317970000000 1.0  -0.02
S      3  0.3618750000000  0.2139000000000 -0.4317970000000 1.0  -0.02
S      3  0.1381250000000 -0.2139000000000 -0.4317970000000 1.0  -0.02
Fe     4  0.4161170000000  0.3150810000000  0.1379520000000 1.0   3.31
Fe     4  0.0838830000000 -0.3150810000000  0.1379520000000 1.0   3.31
Fe     4 -0.4161170000000 -0.3150810000000 -0.1379520000000 1.0   3.31
Fe     4 -0.0838830000000  0.3150810000000 -0.1379520000000 1.0   3.31
Fe     4  0.0000000000000  0.0000000000000  0.0000000000000 1.0   1.35
Fe     4  0.5000000000000  0.0000000000000  0.0000000000000 1.0   1.35
END
