TITL LFSO-Li3FeS2O-200911-182409-e1d3cf -0.0324 219.815927 -5.01812485E+003 -3.89030 4.29467 14 (R3) n - 1
REM
REM Run started: Fri, 11 Sep 2020 21:09:32 +0100 in /lustre/scratch/uccabz1/launch_tmp/launcher_2020-09-11-17-24-08-188640
REM CASTEP 20.1 from code version af48c487+ pr-geom-scf-spinfix Tue Jun 2 15:39:59 2020 +0100
REM Functional Perdew Burke Ernzerhof Relativity Koelling-Harmon Dispersion off
REM Cut-off 340.0000 eV Grid scale 1.7500 Gmax 16.5316 1/A FBSC none
REM MP grid 3 3 3 Offset 0.000 0.000 0.000 No. kpts 6 Spacing 0.07
REM Total runtime: 10394.1 s
REM Overall efficiency: 97.1429 %
REM
REM
REM
REM compiler GCC version 4.9.2
REM options -cpp -iprefix /lustre/shared/ucl/apps/gcc/4.9.2/bin/../lib/gcc/x86_64-unknown-linux-gnu/4.9.2/ -mtune=corei7 -march=x86-64 -g -Og
REM COMMAND_LINE
REM seed 1771423575 740067239 448093651 370260684 1044739527 1674601713 1844603250 1478553707 2006089563 754767057 -156654206 1072626445
REM
REM S 3|1.8|5|6|7|30:31:32(qc=5)
REM O 2|1.5|12|13|15|20:21(qc=5)
REM Li 1|1.3|8|9|10|10U:20(qc=5)
REM Fe 3|2.2|2.0|1.0|8|9|10|40:41:32(qc=5)
REM 
CELL 1.54180    6.25036    6.25036    6.25036   73.82238   73.82238   73.82238
LATT -1
SFAC Li O  S  Fe 
Li     1  0.0670320000000 -0.2538470000000 -0.3972650000000 1.0   0.00
Li     1 -0.3972650000000  0.0670320000000 -0.2538470000000 1.0   0.00
Li     1 -0.2538470000000 -0.3972650000000  0.0670320000000 1.0   0.00
Li     1 -0.0530910000000  0.2561830000000 -0.6357520000000 1.0   0.00
Li     1 -0.6357520000000 -0.0530910000000  0.2561830000000 1.0   0.00
Li     1  0.2561830000000 -0.6357520000000 -0.0530910000000 1.0   0.00
O      2 -0.1566280000000 -0.1566280000000 -0.1566280000000 1.0  -0.13
O      2  0.1180980000000  0.1180980000000  0.1180980000000 1.0  -0.20
S      3  0.2414650000000  0.0812700000000  0.6186400000000 1.0  -0.07
S      3  0.6186400000000  0.2414650000000  0.0812700000000 1.0  -0.07
S      3  0.0812700000000  0.6186400000000  0.2414650000000 1.0  -0.07
S      3 -0.4815590000000 -0.4815590000000 -0.4815590000000 1.0   0.03
Fe     4  0.3601440000000  0.3601440000000  0.3601440000000 1.0  -0.32
Fe     4 -0.0167560000000 -0.0167560000000 -0.0167560000000 1.0  -3.07
END
