TITL LFSO-Li6FeSO3-200909-232104-a7a258 -0.0594 136.541066 -3.68049948E+003 4.00046 4.09571 11 (Cm) n - 1
REM
REM Run started: Thu, 10 Sep 2020 02:11:39 +0100 in /lustre/scratch/uccabz1/launch_tmp/launcher_2020-09-09-22-21-02-785651
REM CASTEP 20.1 from code version af48c487+ pr-geom-scf-spinfix Tue Jun 2 15:39:59 2020 +0100
REM Functional Perdew Burke Ernzerhof Relativity Koelling-Harmon Dispersion off
REM Cut-off 340.0000 eV Grid scale 1.7500 Gmax 16.5316 1/A FBSC none
REM MP grid 6 6 3 Offset 0.000 0.000 0.000 No. kpts 33 Spacing 0.07
REM Total runtime: 10630.2 s
REM Overall efficiency: 95.6 %
REM
REM
REM
REM compiler GCC version 4.9.2
REM options -cpp -iprefix /lustre/shared/ucl/apps/gcc/4.9.2/bin/../lib/gcc/x86_64-unknown-linux-gnu/4.9.2/ -mtune=corei7 -march=x86-64 -g -Og
REM COMMAND_LINE
REM seed -1558706319 109859902 821612510 -774247484 -392457128 -187488393 367042132 247926185 -1724724097 -136288983 -815328032 -1093090964
REM
REM S 3|1.8|5|6|7|30:31:32(qc=5)
REM O 2|1.5|12|13|15|20:21(qc=5)
REM Li 1|1.3|8|9|10|10U:20(qc=5)
REM Fe 3|2.2|2.0|1.0|8|9|10|40:41:32(qc=5)
REM 
CELL 1.54180    5.81665    5.81665    9.78678  114.41258  114.41258  123.26775
LATT -1
SFAC Li O  S  Fe 
Li     1  0.0354710000000  0.2769720000000 -0.0048510000000 1.0   0.00
Li     1  0.2769720000000  0.0354710000000 -0.0048510000000 1.0   0.00
Li     1 -0.4990450000000  0.2835770000000 -0.1803730000000 1.0  -0.01
Li     1  0.2835770000000 -0.4990450000000 -0.1803730000000 1.0  -0.01
Li     1 -0.2259450000000  0.1780170000000  0.2917650000000 1.0  -0.05
Li     1  0.1780170000000 -0.2259450000000  0.2917650000000 1.0  -0.05
O      2 -0.1353230000000  0.1999760000000  0.1293930000000 1.0   0.08
O      2  0.1999760000000 -0.1353230000000  0.1293930000000 1.0   0.08
O      2  0.0490420000000  0.0490420000000 -0.2152460000000 1.0   0.19
S      3  0.0052830000000  0.0052830000000 -0.5606100000000 1.0   0.10
Fe     4 -0.5644860000000 -0.5644860000000 -0.6068550000000 1.0   3.66
END
