TITL LFSO-Li4Fe2S3O-200911-023923-ebb59d -0.0254 185.879965 -3.87112396E+003 6.91504 7.31318 10 (P2/m) n - 1
REM
REM Run started: Fri, 11 Sep 2020 03:34:16 +0100 in /lustre/scratch/uccabz1/launch_tmp/launcher_2020-09-11-01-39-20-859147
REM CASTEP 20.1 from code version af48c487+ pr-geom-scf-spinfix Tue Jun 2 15:39:59 2020 +0100
REM Functional Perdew Burke Ernzerhof Relativity Koelling-Harmon Dispersion off
REM Cut-off 340.0000 eV Grid scale 1.7500 Gmax 16.5316 1/A FBSC none
REM MP grid 5 3 2 Offset 0.000 0.000 0.000 No. kpts 10 Spacing 0.07
REM Total runtime: 3965.68 s
REM Overall efficiency: 79.5 %
REM
REM
REM
REM compiler GCC version 4.9.2
REM options -cpp -iprefix /lustre/shared/ucl/apps/gcc/4.9.2/bin/../lib/gcc/x86_64-unknown-linux-gnu/4.9.2/ -mtune=corei7 -march=x86-64 -g -Og
REM COMMAND_LINE
REM seed 1965387438 1227907086 -156558253 -1293093384 -653826068 -739144209 -684401875 1726344042 -1528555534 -657014857 546078507 -302910479
REM
REM S 3|1.8|5|6|7|30:31:32(qc=5)
REM O 2|1.5|12|13|15|20:21(qc=5)
REM Li 1|1.3|8|9|10|10U:20(qc=5)
REM Fe 3|2.2|2.0|1.0|8|9|10|40:41:32(qc=5)
REM 
CELL 1.54180    3.42140    5.14796   11.37961   90.00000  111.96700   90.00000
LATT -1
SFAC Li O  S  Fe 
Li     1 -0.8891150000000 -0.2116740000000 -0.3409250000000 1.0   0.01
Li     1  0.8891150000000 -0.2116740000000  0.3409250000000 1.0   0.01
Li     1  0.8891150000000  0.2116740000000  0.3409250000000 1.0   0.01
Li     1 -0.8891150000000  0.2116740000000 -0.3409250000000 1.0   0.01
O      2 -0.5000000000000  0.0000000000000 -0.0000000000000 1.0   0.30
S      3  0.2457830000000  0.0000000000000  0.2132190000000 1.0   0.10
S      3 -0.2457830000000  0.0000000000000 -0.2132190000000 1.0   0.10
S      3  0.5000000000000  0.0000000000000  0.5000000000000 1.0  -0.09
Fe     4  0.0000000000000 -0.2198040000000 -0.0000000000000 1.0   3.23
Fe     4  0.0000000000000  0.2198040000000 -0.0000000000000 1.0   3.23
END
