TITL LFSO-LiFeSO-200921-175303-f4abf6 0.0200 318.234126 -7.21892171E+003 5.80993 14.2243 16 (R3) n - 1
REM
REM Run started: Tue, 22 Sep 2020 09:47:04 +0100 in /lustre/scratch/uccabz1/launch_tmp/launcher_2020-09-21-16-53-02-162568
REM CASTEP 20.1 from code version af48c487+ pr-geom-scf-spinfix Tue Jun 2 15:39:59 2020 +0100
REM Functional Perdew Burke Ernzerhof Relativity Koelling-Harmon Dispersion off
REM Cut-off 340.0000 eV Grid scale 1.7500 Gmax 16.5316 1/A FBSC none
REM MP grid 3 3 3 Offset 0.000 0.000 0.000 No. kpts 6 Spacing 0.07
REM Total runtime: 57422.4 s
REM Overall efficiency: 97.6667 %
REM
REM
REM
REM compiler GCC version 4.9.2
REM options -cpp -iprefix /lustre/shared/ucl/apps/gcc/4.9.2/bin/../lib/gcc/x86_64-unknown-linux-gnu/4.9.2/ -mtune=corei7 -march=x86-64 -g -Og
REM COMMAND_LINE
REM seed 799016181 1295510356 -1170460221 1988457931 881955031 1579647714 1415635151 1766770652 -865122208 -1536935000 -1723088319 -1986960055
REM
REM S 3|1.8|5|6|7|30:31:32(qc=5)
REM O 2|1.5|12|13|15|20:21(qc=5)
REM Li 1|1.3|8|9|10|10U:20(qc=5)
REM Fe 3|2.2|2.0|1.0|8|9|10|40:41:32(qc=5)
REM 
CELL 1.54180    9.06459    9.06459    9.06459   43.34110   43.34110   43.34110
LATT -1
SFAC Li O  S  Fe 
Li     1  0.4983190000000 -0.2380790000000  0.2844000000000 1.0   0.02
Li     1 -0.2380790000000  0.2844000000000  0.4983190000000 1.0   0.02
Li     1  0.2844000000000  0.4983190000000 -0.2380790000000 1.0   0.02
Li     1 -0.0411940000000 -0.0411940000000 -0.0411940000000 1.0  -0.02
O      2 -0.1777860000000  0.7921990000000  0.3349970000000 1.0   0.06
O      2  0.7921990000000  0.3349970000000 -0.1777860000000 1.0   0.06
O      2  0.3349970000000 -0.1777860000000  0.7921990000000 1.0   0.06
O      2 -0.4483590000000 -0.4483590000000 -0.4483590000000 1.0  -0.25
S      3  0.0133990000000 -0.1524980000000 -0.4572250000000 1.0   0.16
S      3 -0.1524980000000 -0.4572250000000  0.0133990000000 1.0   0.16
S      3 -0.4572250000000  0.0133990000000 -0.1524980000000 1.0   0.16
S      3  0.1274890000000  0.1274890000000  0.1274890000000 1.0  -0.03
Fe     4 -0.0985690000000  0.2983450000000 -0.0468530000000 1.0   3.04
Fe     4  0.2983450000000 -0.0468530000000 -0.0985690000000 1.0   3.04
Fe     4 -0.0468530000000 -0.0985690000000  0.2983450000000 1.0   3.04
Fe     4 -0.3721660000000 -0.3721660000000 -0.3721660000000 1.0  -3.70
END
