TITL LFSO-Li3Fe3S4O2-201002-080032-1b5a89 -0.0677 227.860812 -5.27497594E+003 8.20847 10.3258 12 (P3) n - 1
REM
REM Run started: Fri, 02 Oct 2020 15:33:37 +0100 in /scratch/scratch/uccabz1/launch_tmp/launcher_2020-10-02-12-27-02-652425
REM CASTEP 19.11| from code version Version unavailable
REM Functional Perdew Burke Ernzerhof Relativity Koelling-Harmon Dispersion off
REM Cut-off 340.0000 eV Grid scale 1.7500 Gmax 16.5316 1/A FBSC none
REM MP grid 3 3 2 Offset 0.000 0.000 0.000 No. kpts 5 Spacing 0.07
REM Total runtime: 8037.53 s
REM Overall efficiency: 76.5833 %
REM
REM
REM
REM compiler GCC version 4.9.2
REM options -cpp -iprefix /lustre/shared/ucl/apps/gcc/4.9.2/bin/../lib/gcc/x86_64-unknown-linux-gnu/4.9.2/ -mtune=corei7 -march=x86-64 -g -Og
REM COMMAND_LINE
REM seed 1933475510 -1114122221 1660737582 1116915186 -1608066978 912347591 -2140828082 -672819149 695571698 131634653 92019977 652408177
REM
REM S 3|1.8|5|6|7|30:31:32(qc=5)
REM O 2|1.5|12|13|15|20:21(qc=5)
REM Li 1|1.3|8|9|10|10U:20(qc=5)
REM Fe 3|2.2|2.0|1.0|8|9|10|40:41:32(qc=5)
REM 
CELL 1.54180    5.66269    5.66269    8.20527   90.00000   90.00000  120.00000
LATT -1
SFAC Li O  S  Fe 
Li     1  0.0476970000000  0.4211140000000  0.3643200000000 1.0  -0.21
Li     1  0.3734170000000 -0.0476970000000  0.3643200000000 1.0  -0.21
Li     1 -0.4211140000000 -0.3734170000000  0.3643200000000 1.0  -0.21
O      2 -0.3333330000000  0.3333330000000  0.0455930000000 1.0   0.18
O      2  0.0000000000000 -0.0000000000000 -0.0208540000000 1.0   0.28
S      3  0.4974280000000  0.0714410000000 -0.3573760000000 1.0  -0.19
S      3 -0.4259860000000 -0.4974280000000 -0.3573760000000 1.0  -0.19
S      3 -0.0714410000000  0.4259860000000 -0.3573760000000 1.0  -0.19
S      3  0.0000000000000 -0.0000000000000  0.3331150000000 1.0   0.13
Fe     4 -0.1898380000000  0.1211000000000  0.1149800000000 1.0   2.94
Fe     4  0.3109400000000  0.1898380000000  0.1149800000000 1.0   2.94
Fe     4 -0.1211000000000 -0.3109400000000  0.1149800000000 1.0   2.94
END
