TITL LFSO-Li2Fe4S2O3-200912-134201-7fbf4a -0.9711 136.335615 -5.77573599E+003 13.4669 13.6391 11 (P-1) n - 1
REM
REM Run started: Sat, 12 Sep 2020 19:03:34 +0100 in /lustre/scratch/uccabz1/launch_tmp/launcher_2020-09-12-12-41-59-223704
REM CASTEP 20.1 from code version af48c487+ pr-geom-scf-spinfix Tue Jun 2 15:39:59 2020 +0100
REM Functional Perdew Burke Ernzerhof Relativity Koelling-Harmon Dispersion off
REM Cut-off 340.0000 eV Grid scale 1.7500 Gmax 16.5316 1/A FBSC none
REM MP grid 3 3 3 Offset 0.000 0.000 0.000 No. kpts 14 Spacing 0.07
REM Total runtime: 20939.6 s
REM Overall efficiency: 97.5 %
REM
REM
REM
REM compiler GCC version 4.9.2
REM options -cpp -iprefix /lustre/shared/ucl/apps/gcc/4.9.2/bin/../lib/gcc/x86_64-unknown-linux-gnu/4.9.2/ -mtune=corei7 -march=x86-64 -g -Og
REM COMMAND_LINE
REM seed -2056045868 429814795 -1291543996 1795281489 -255913679 1683492512 1224905448 -404058875 -1285367832 1447234695 -1743126730 736574916
REM
REM S 3|1.8|5|6|7|30:31:32(qc=5)
REM O 2|1.5|12|13|15|20:21(qc=5)
REM Li 1|1.3|8|9|10|10U:20(qc=5)
REM Fe 3|2.2|2.0|1.0|8|9|10|40:41:32(qc=5)
REM 
CELL 1.54180    5.35824    5.28622    5.98761  112.60901  118.96838   83.79072
LATT -1
SFAC Li O  S  Fe 
Li     1 -0.2922260000000  0.1369230000000  0.2620090000000 1.0  -0.01
Li     1  0.2922260000000 -0.1369230000000 -0.2620090000000 1.0  -0.01
O      2 -0.2860110000000  0.0442830000000 -0.0858170000000 1.0   0.24
O      2  0.2860110000000 -0.0442830000000  0.0858170000000 1.0   0.24
O      2  0.5000000000000 -0.5000000000000  0.5000000000000 1.0   0.24
S      3 -0.1332050000000 -0.3237740000000  0.2621550000000 1.0   0.24
S      3  0.1332050000000  0.3237740000000 -0.2621550000000 1.0   0.24
Fe     4 -0.1189550000000 -0.3140150000000 -0.1344720000000 1.0   3.17
Fe     4  0.1189550000000  0.3140150000000  0.1344720000000 1.0   3.17
Fe     4  0.4361490000000 -0.2696050000000  0.2909330000000 1.0   2.98
Fe     4 -0.4361490000000  0.2696050000000 -0.2909330000000 1.0   2.98
END
