TITL LFSO-Li4Fe3S2O3-200928-043519-a0cd7e 0.0348 411.276007 -1.06231478E+004 22.1340 22.7646 24 (R3) n - 1
REM
REM Run started: Mon, 28 Sep 2020 15:59:03 +0100 in /scratch/scratch/uccabz1/launch_tmp/launcher_2020-09-28-03-35-17-942764
REM CASTEP 19.11| from code version Version unavailable
REM Functional Perdew Burke Ernzerhof Relativity Koelling-Harmon Dispersion off
REM Cut-off 340.0000 eV Grid scale 1.7500 Gmax 16.5316 1/A FBSC none
REM MP grid 3 3 3 Offset 0.000 0.000 0.000 No. kpts 6 Spacing 0.07
REM Total runtime: 47577.3 s
REM Overall efficiency: 98.875 %
REM
REM
REM
REM compiler GCC version 4.9.2
REM options -cpp -iprefix /scratch/UCL/applications/gcc/4.9.2/bin/../lib/gcc/x86_64-unknown-linux-gnu/4.9.2/ -mtune=corei7 -march=x86-64 -g -O2
REM COMMAND_LINE
REM seed 1947433575 781772304 -2105242675 -1889225629 -1404207559 -1093828566 -342069081 1985826246 -1873844769 -504101306 401245024 1801139777
REM
REM S 3|1.8|5|6|7|30:31:32(qc=5)
REM O 2|1.5|12|13|15|20:21(qc=5)
REM Li 1|1.3|8|9|10|10U:20(qc=5)
REM Fe 3|2.2|2.0|1.0|8|9|10|40:41:32(qc=5)
REM 
CELL 1.54180    8.72232    8.72232    8.72232   54.69851   54.69851   54.69851
LATT -1
SFAC Li O  S  Fe 
Li     1 -0.4006680000000  0.1051930000000 -0.2661940000000 1.0  -0.04
Li     1  0.1051930000000 -0.2661940000000 -0.4006680000000 1.0  -0.04
Li     1 -0.2661940000000 -0.4006680000000  0.1051930000000 1.0  -0.04
Li     1 -0.1063620000000  0.5197320000000 -0.4748470000000 1.0  -0.02
Li     1  0.5197320000000 -0.4748470000000 -0.1063620000000 1.0  -0.02
Li     1 -0.4748470000000 -0.1063620000000  0.5197320000000 1.0  -0.02
Li     1  0.0977630000000  0.0977630000000  0.0977630000000 1.0  -0.03
Li     1  0.3247570000000  0.3247570000000  0.3247570000000 1.0  -0.01
O      2  0.3722080000000  0.1585190000000 -0.0405720000000 1.0   0.31
O      2  0.1585190000000 -0.0405720000000  0.3722080000000 1.0   0.31
O      2 -0.0405720000000  0.3722080000000  0.1585190000000 1.0   0.31
O      2 -0.3624690000000 -0.2243570000000  0.2743150000000 1.0   0.28
O      2 -0.2243570000000  0.2743150000000 -0.3624690000000 1.0   0.28
O      2  0.2743150000000 -0.3624690000000 -0.2243570000000 1.0   0.28
S      3 -0.3198170000000  0.2016050000000  0.1438160000000 1.0   0.23
S      3  0.2016050000000  0.1438160000000 -0.3198170000000 1.0   0.23
S      3  0.1438160000000 -0.3198170000000  0.2016050000000 1.0   0.23
S      3 -0.2732350000000 -0.2732350000000 -0.2732350000000 1.0   0.08
Fe     4  0.4158250000000 -0.0267820000000  0.2022040000000 1.0   3.43
Fe     4 -0.0267820000000  0.2022040000000  0.4158250000000 1.0   3.43
Fe     4  0.2022040000000  0.4158250000000 -0.0267820000000 1.0   3.43
Fe     4 -0.1585640000000 -0.1299300000000  0.1606450000000 1.0   3.18
Fe     4 -0.1299300000000  0.1606450000000 -0.1585640000000 1.0   3.18
Fe     4  0.1606450000000 -0.1585640000000 -0.1299300000000 1.0   3.18
END
