TITL LFSO-Li4Fe2S3O-200911-031013-0b9ce7 0.1399 338.097204 -7.75409748E+003 -15.9583 16.1378 20 (Cc) n - 1
REM
REM Run started: Sun, 13 Sep 2020 07:39:20 +0100 in /lustre/scratch/uccabz1/launch_tmp/launcher_2020-09-12-05-43-51-885125
REM CASTEP 20.1 from code version af48c487+ pr-geom-scf-spinfix Tue Jun 2 15:39:59 2020 +0100
REM Functional Perdew Burke Ernzerhof Relativity Koelling-Harmon Dispersion off
REM Cut-off 340.0000 eV Grid scale 1.7500 Gmax 16.5316 1/A FBSC none
REM MP grid 4 3 3 Offset 0.000 0.000 0.000 No. kpts 12 Spacing 0.07
REM Total runtime: 181099 s
REM Overall efficiency: 96.1538 %
REM
REM
REM
REM compiler GCC version 4.9.2
REM options -cpp -iprefix /lustre/shared/ucl/apps/gcc/4.9.2/bin/../lib/gcc/x86_64-unknown-linux-gnu/4.9.2/ -mtune=corei7 -march=x86-64 -g -Og
REM COMMAND_LINE
REM seed 618572512 375693728 -231345186 -2093468476 1538004997 -1523091874 -1597201065 -1557130842 1845739835 1026314340 291385923 62424089
REM
REM S 3|1.8|5|6|7|30:31:32(qc=5)
REM O 2|1.5|12|13|15|20:21(qc=5)
REM Li 1|1.3|8|9|10|10U:20(qc=5)
REM Fe 3|2.2|2.0|1.0|8|9|10|40:41:32(qc=5)
REM 
CELL 1.54180    8.05959   10.83748   10.83748   50.62349   36.70649   36.70649
LATT -1
SFAC Li O  S  Fe 
Li     1 -0.5039980000000  0.3122300000000  0.4409490000000 1.0   0.03
Li     1 -0.0039980000000  0.4409490000000  0.3122300000000 1.0   0.03
Li     1 -0.6670120000000 -0.2039920000000  0.5233090000000 1.0   0.03
Li     1 -0.1670120000000  0.5233090000000 -0.2039920000000 1.0   0.03
Li     1  0.6722060000000 -0.0717000000000  0.6028600000000 1.0   0.02
Li     1  0.1722060000000  0.6028600000000 -0.0717000000000 1.0   0.02
Li     1 -0.0628940000000 -0.2296530000000  0.2169260000000 1.0   0.01
Li     1  0.4371060000000  0.2169260000000 -0.2296530000000 1.0   0.01
O      2 -0.2488390000000 -0.2857980000000  0.2014930000000 1.0  -0.24
O      2  0.2511610000000  0.2014930000000 -0.2857980000000 1.0  -0.24
S      3 -0.3616250000000 -0.3603160000000 -0.3713860000000 1.0  -0.23
S      3  0.1383750000000 -0.3713860000000 -0.3603160000000 1.0  -0.23
S      3  0.0027920000000  0.1493190000000 -0.4739560000000 1.0  -0.22
S      3  0.5027920000000 -0.4739560000000  0.1493190000000 1.0  -0.22
S      3  0.0888840000000  0.0152680000000  0.2086010000000 1.0  -0.25
S      3 -0.4111160000000  0.2086010000000  0.0152680000000 1.0  -0.25
Fe     4  0.4350660000000  0.6809510000000  0.2957100000000 1.0  -3.59
Fe     4 -0.0649340000000  0.2957100000000  0.6809510000000 1.0  -3.59
Fe     4  0.3791270000000  0.0223590000000  0.2010500000000 1.0  -3.53
Fe     4 -0.1208730000000  0.2010500000000  0.0223590000000 1.0  -3.53
END
