TITL LFSO-Li2Fe4S2O3-200912-075454-5baf7b 0.0170 146.145309 -5.77454693E+003 0.245914E-01 0.306231E-01 11 (Pm) n - 1
REM
REM Run started: Sat, 12 Sep 2020 16:30:12 +0100 in /lustre/scratch/uccabz1/launch_tmp/launcher_2020-09-12-06-54-52-371188
REM CASTEP 20.1 from code version af48c487+ pr-geom-scf-spinfix Tue Jun 2 15:39:59 2020 +0100
REM Functional Perdew Burke Ernzerhof Relativity Koelling-Harmon Dispersion off
REM Cut-off 340.0000 eV Grid scale 1.7500 Gmax 16.5316 1/A FBSC none
REM MP grid 5 2 3 Offset 0.000 0.000 0.000 No. kpts 8 Spacing 0.07
REM Total runtime: 30990.9 s
REM Overall efficiency: 95.6364 %
REM
REM
REM
REM compiler GCC version 4.9.2
REM options -cpp -iprefix /lustre/shared/ucl/apps/gcc/4.9.2/bin/../lib/gcc/x86_64-unknown-linux-gnu/4.9.2/ -mtune=corei7 -march=x86-64 -g -Og
REM COMMAND_LINE
REM seed -797769169 -876433361 2052830875 -1573402516 -334884760 524587517 -492056294 177024291 1424398339 321422308 -1624497728 -1151875057
REM
REM S 3|1.8|5|6|7|30:31:32(qc=5)
REM O 2|1.5|12|13|15|20:21(qc=5)
REM Li 1|1.3|8|9|10|10U:20(qc=5)
REM Fe 3|2.2|2.0|1.0|8|9|10|40:41:32(qc=5)
REM 
CELL 1.54180    3.45889    7.63894    6.42037   90.00000  120.51456   90.00000
LATT -1
SFAC Li O  S  Fe 
Li     1  0.0510180000000 -0.1792910000000 -0.0043470000000 1.0  -0.00
Li     1  0.0510180000000  0.1792910000000 -0.0043470000000 1.0  -0.00
O      2  0.5889310000000 -0.2942330000000  0.0511790000000 1.0   0.00
O      2  0.5889310000000  0.2942330000000  0.0511790000000 1.0   0.00
O      2 -0.0029010000000  0.0000000000000  0.1873220000000 1.0   0.00
S      3 -0.3601560000000  0.2682670000000 -0.4487820000000 1.0  -0.00
S      3 -0.3601560000000 -0.2682670000000 -0.4487820000000 1.0  -0.00
Fe     4 -0.0478790000000 -0.1920140000000  0.3454870000000 1.0   0.00
Fe     4 -0.0478790000000  0.1920140000000  0.3454870000000 1.0   0.00
Fe     4  0.3215150000000  0.3599640000000 -0.2564490000000 1.0   0.01
Fe     4  0.3215150000000 -0.3599640000000 -0.2564490000000 1.0   0.01
END
