TITL LFSO-Li3Fe3S2O4-200929-165837-b5527f 0.0183 382.571440 -1.10972775E+004 -16.6226 17.1010 24 (C222) n - 1
REM
REM Run started: Wed, 30 Sep 2020 01:06:03 +0100 in /lustre/scratch/uccabz1/launch_tmp/launcher_2020-09-29-15-58-35-757118
REM CASTEP 20.1 from code version af48c487+ pr-geom-scf-spinfix Tue Jun 2 15:39:59 2020 +0100
REM Functional Perdew Burke Ernzerhof Relativity Koelling-Harmon Dispersion off
REM Cut-off 340.0000 eV Grid scale 1.7500 Gmax 16.5316 1/A FBSC none
REM MP grid 3 2 3 Offset 0.000 0.000 0.000 No. kpts 6 Spacing 0.07
REM Total runtime: 31686.5 s
REM Overall efficiency: 90.8 %
REM
REM
REM
REM compiler GCC version 4.9.2
REM options -cpp -iprefix /lustre/shared/ucl/apps/gcc/4.9.2/bin/../lib/gcc/x86_64-unknown-linux-gnu/4.9.2/ -mtune=corei7 -march=x86-64 -g -Og
REM COMMAND_LINE
REM seed -2113788567 1302056310 1102751849 -1724593054 -160814492 -1121755728 -1149627225 2013708318 -668915213 -1531347979 -1922831407 111648783
REM
REM S 3|1.8|5|6|7|30:31:32(qc=5)
REM O 2|1.5|12|13|15|20:21(qc=5)
REM Li 1|1.3|8|9|10|10U:20(qc=5)
REM Fe 3|2.2|2.0|1.0|8|9|10|40:41:32(qc=5)
REM 
CELL 1.54180    6.71537    9.22790    6.62795   90.00000   90.00000  111.33757
LATT -1
SFAC Li O  S  Fe 
Li     1  0.3191590000000  0.0868690000000 -0.1514870000000 1.0   0.00
Li     1 -0.3191590000000 -0.0868690000000 -0.1514870000000 1.0   0.00
Li     1  0.2322900000000 -0.0868690000000  0.1514870000000 1.0   0.00
Li     1 -0.2322900000000  0.0868690000000  0.1514870000000 1.0   0.00
Li     1 -0.5000000000000  0.5000000000000 -0.0121130000000 1.0  -0.00
Li     1 -0.0000000000000 -0.5000000000000  0.0121130000000 1.0  -0.00
O      2 -0.2334290000000  0.1363010000000 -0.1390050000000 1.0  -0.31
O      2  0.2334290000000 -0.1363010000000 -0.1390050000000 1.0  -0.31
O      2 -0.3697300000000 -0.1363010000000  0.1390050000000 1.0  -0.31
O      2  0.3697300000000  0.1363010000000  0.1390050000000 1.0  -0.31
O      2  0.4168390000000  0.1998260000000 -0.4012950000000 1.0  -0.23
O      2 -0.4168390000000 -0.1998260000000 -0.4012950000000 1.0  -0.23
O      2  0.2170130000000 -0.1998260000000  0.4012950000000 1.0  -0.23
O      2 -0.2170130000000  0.1998260000000  0.4012950000000 1.0  -0.23
S      3  0.2464840000000 -0.4957500000000 -0.2667780000000 1.0  -0.10
S      3 -0.2464840000000  0.4957500000000 -0.2667780000000 1.0  -0.10
S      3 -0.2577670000000  0.4957500000000  0.2667780000000 1.0  -0.10
S      3  0.2577670000000 -0.4957500000000  0.2667780000000 1.0  -0.10
Fe     4 -0.4711410000000  0.2240250000000  0.3432360000000 1.0  -2.31
Fe     4  0.4711410000000 -0.2240250000000  0.3432360000000 1.0  -2.31
Fe     4  0.3048340000000 -0.2240250000000 -0.3432360000000 1.0  -2.31
Fe     4 -0.3048340000000  0.2240250000000 -0.3432360000000 1.0  -2.31
Fe     4  0.5000000000000 -0.5000000000000  0.4974850000000 1.0  -2.42
Fe     4 -0.0000000000000 -0.5000000000000 -0.4974850000000 1.0  -2.42
END
