TITL LFSO-Li6FeSO3-200909-223554-4393bf -0.0109 183.550186 -3.67889052E+003 0.738003E-05 1.61097 11 (P3) n - 1
REM
REM Run started: Thu, 10 Sep 2020 00:51:27 +0100 in /lustre/scratch/uccabz1/launch_tmp/launcher_2020-09-09-21-35-52-593802
REM CASTEP 20.1 from code version af48c487+ pr-geom-scf-spinfix Tue Jun 2 15:39:59 2020 +0100
REM Functional Perdew Burke Ernzerhof Relativity Koelling-Harmon Dispersion off
REM Cut-off 340.0000 eV Grid scale 1.7500 Gmax 16.5316 1/A FBSC none
REM MP grid 3 3 3 Offset 0.000 0.000 0.000 No. kpts 8 Spacing 0.07
REM Total runtime: 8805.76 s
REM Overall efficiency: 90.8 %
REM
REM
REM
REM compiler GCC version 4.9.2
REM options -cpp -iprefix /lustre/shared/ucl/apps/gcc/4.9.2/bin/../lib/gcc/x86_64-unknown-linux-gnu/4.9.2/ -mtune=corei7 -march=x86-64 -g -Og
REM COMMAND_LINE
REM seed 1049322487 -1793600965 -1240284243 -2133626153 -283530737 359453645 -770910175 12286868 1662968150 151394617 617963400 -1002773397
REM
REM S 3|1.8|5|6|7|30:31:32(qc=5)
REM O 2|1.5|12|13|15|20:21(qc=5)
REM Li 1|1.3|8|9|10|10U:20(qc=5)
REM Fe 3|2.2|2.0|1.0|8|9|10|40:41:32(qc=5)
REM 
CELL 1.54180    6.08747    5.90057    5.90057  120.00000   90.00000   90.00000
LATT -1
SFAC Li O  S  Fe 
Li     1  0.3577160000000  0.3748120000000  0.0924290000000 1.0   0.01
Li     1  0.3577160000000 -0.2823830000000 -0.3748120000000 1.0   0.01
Li     1  0.3577160000000 -0.0924290000000  0.2823830000000 1.0   0.01
Li     1 -0.0704590000000  0.6533160000000  0.0306710000000 1.0  -0.02
Li     1 -0.0704590000000  0.3773550000000 -0.6533160000000 1.0  -0.02
Li     1 -0.0704590000000 -0.0306710000000 -0.3773550000000 1.0  -0.02
O      2  0.2269160000000 -0.3695330000000 -0.0307600000000 1.0   0.02
O      2  0.2269160000000  0.3387730000000  0.3695330000000 1.0   0.02
O      2  0.2269160000000  0.0307600000000 -0.3387730000000 1.0   0.02
S      3 -0.3179240000000 -0.3333330000000  0.3333330000000 1.0  -0.00
Fe     4  0.1886310000000  0.3333330000000 -0.3333330000000 1.0  -0.04
END
