TITL LFSO-Li5FeS2O2-200921-005636-27bd7a 0.0265 157.851714 -3.33991177E+003 3.26196 3.61628 10 (P222) n - 1
REM
REM Run started: Mon, 21 Sep 2020 01:28:03 +0100 in /lustre/scratch/uccabz1/launch_tmp/launcher_2020-09-20-23-56-35-065606
REM CASTEP 20.1 from code version af48c487+ pr-geom-scf-spinfix Tue Jun 2 15:39:59 2020 +0100
REM Functional Perdew Burke Ernzerhof Relativity Koelling-Harmon Dispersion off
REM Cut-off 340.0000 eV Grid scale 1.7500 Gmax 16.5316 1/A FBSC none
REM MP grid 4 4 2 Offset 0.000 0.000 0.000 No. kpts 4 Spacing 0.07
REM Total runtime: 1996.24 s
REM Overall efficiency: 92.125 %
REM
REM
REM
REM compiler GCC version 4.9.2
REM options -cpp -iprefix /lustre/shared/ucl/apps/gcc/4.9.2/bin/../lib/gcc/x86_64-unknown-linux-gnu/4.9.2/ -mtune=corei7 -march=x86-64 -g -Og
REM COMMAND_LINE
REM seed -437460237 -833602382 256712911 -852467136 831543609 89479713 2037387597 -2009615438 -689168732 -2092546663 846965936 -961818966
REM
REM S 3|1.8|5|6|7|30:31:32(qc=5)
REM O 2|1.5|12|13|15|20:21(qc=5)
REM Li 1|1.3|8|9|10|10U:20(qc=5)
REM Fe 3|2.2|2.0|1.0|8|9|10|40:41:32(qc=5)
REM 
CELL 1.54180    3.71500    4.65047    9.13680   90.00000   90.00000   90.00000
LATT -1
SFAC Li O  S  Fe 
Li     1  0.1259350000000  0.2839740000000 -0.2720500000000 1.0  -0.05
Li     1 -0.1259350000000 -0.2839740000000 -0.2720500000000 1.0  -0.05
Li     1  0.1259350000000 -0.2839740000000  0.2720500000000 1.0  -0.05
Li     1 -0.1259350000000  0.2839740000000  0.2720500000000 1.0  -0.05
Li     1 -0.5000000000000  0.0000000000000  0.0000000000000 1.0   0.00
O      2 -0.5000000000000 -0.5000000000000  0.3398670000000 1.0   0.01
O      2  0.5000000000000  0.5000000000000 -0.3398670000000 1.0   0.01
S      3  0.0000000000000 -0.2794220000000  0.0000000000000 1.0  -0.00
S      3  0.0000000000000  0.2794220000000  0.0000000000000 1.0  -0.00
Fe     4  0.5000000000000  0.0000000000000  0.5000000000000 1.0   3.43
END
