TITL LFSO-Li4Fe2SO3-200910-212616-69fdad 0.0186 305.905657 -8.28586357E+003 11.4332 12.0871 20 (R3) n - 1
REM
REM Run started: Fri, 11 Sep 2020 20:46:59 +0100 in /lustre/scratch/uccabz1/launch_tmp/launcher_2020-09-10-20-26-15-068888
REM CASTEP 20.1 from code version af48c487+ pr-geom-scf-spinfix Tue Jun 2 15:39:59 2020 +0100
REM Functional Perdew Burke Ernzerhof Relativity Koelling-Harmon Dispersion off
REM Cut-off 340.0000 eV Grid scale 1.7500 Gmax 16.5316 1/A FBSC none
REM MP grid 3 3 3 Offset 0.000 0.000 0.000 No. kpts 6 Spacing 0.07
REM Total runtime: 83072.3 s
REM Overall efficiency: 98.5385 %
REM
REM
REM
REM compiler GCC version 4.9.2
REM options -cpp -iprefix /lustre/shared/ucl/apps/gcc/4.9.2/bin/../lib/gcc/x86_64-unknown-linux-gnu/4.9.2/ -mtune=corei7 -march=x86-64 -g -Og
REM COMMAND_LINE
REM seed 360487408 -928049092 1603648347 -1029744165 1527981583 -599234932 1681650372 -227158987 -1056884412 1604414526 -742487846 210864821
REM
REM S 3|1.8|5|6|7|30:31:32(qc=5)
REM O 2|1.5|12|13|15|20:21(qc=5)
REM Li 1|1.3|8|9|10|10U:20(qc=5)
REM Fe 3|2.2|2.0|1.0|8|9|10|40:41:32(qc=5)
REM 
CELL 1.54180    8.10132    8.10132    8.10132   52.07202   52.07202   52.07202
LATT -1
SFAC Li O  S  Fe 
Li     1  0.5620360000000 -0.1601750000000  0.2083100000000 1.0   0.02
Li     1  0.2083100000000  0.5620360000000 -0.1601750000000 1.0   0.02
Li     1 -0.1601750000000  0.2083100000000  0.5620360000000 1.0   0.02
Li     1  0.1472970000000 -0.0382050000000 -0.2757760000000 1.0  -0.03
Li     1 -0.2757760000000  0.1472970000000 -0.0382050000000 1.0  -0.03
Li     1 -0.0382050000000 -0.2757760000000  0.1472970000000 1.0  -0.03
Li     1 -0.2604270000000 -0.2604270000000 -0.2604270000000 1.0  -0.10
Li     1  0.1254760000000  0.1254760000000  0.1254760000000 1.0  -0.02
O      2 -0.3053900000000 -0.0742730000000  0.2715330000000 1.0   0.16
O      2  0.2715330000000 -0.3053900000000 -0.0742730000000 1.0   0.16
O      2 -0.0742730000000  0.2715330000000 -0.3053900000000 1.0   0.16
O      2  0.3424720000000 -0.2166850000000  0.2571190000000 1.0   0.22
O      2  0.2571190000000  0.3424720000000 -0.2166850000000 1.0   0.22
O      2 -0.2166850000000  0.2571190000000  0.3424720000000 1.0   0.22
S      3  0.3407490000000  0.3407490000000  0.3407490000000 1.0  -0.04
S      3 -0.1503690000000 -0.1503690000000 -0.1503690000000 1.0   0.02
Fe     4  0.1209150000000  0.3137070000000 -0.3107680000000 1.0   2.43
Fe     4 -0.3107680000000  0.1209150000000  0.3137070000000 1.0   2.43
Fe     4  0.3137070000000 -0.3107680000000  0.1209150000000 1.0   2.43
Fe     4 -0.5503220000000 -0.5503220000000 -0.5503220000000 1.0   3.22
END
