TITL LFSO-Li5FeS2O2-200920-230027-a11961 0.0054 152.959503 -3.34092114E+003 0.237460E-03 0.146714E-02 10 (R3) n - 1
REM
REM Run started: Mon, 21 Sep 2020 04:24:15 +0100 in /lustre/scratch/uccabz1/launch_tmp/launcher_2020-09-20-22-00-25-560389
REM CASTEP 20.1 from code version af48c487+ pr-geom-scf-spinfix Tue Jun 2 15:39:59 2020 +0100
REM Functional Perdew Burke Ernzerhof Relativity Koelling-Harmon Dispersion off
REM Cut-off 340.0000 eV Grid scale 1.7500 Gmax 16.5316 1/A FBSC none
REM MP grid 5 5 2 Offset 0.000 0.000 0.000 No. kpts 21 Spacing 0.07
REM Total runtime: 19484.9 s
REM Overall efficiency: 95.6667 %
REM
REM
REM
REM compiler GCC version 4.9.2
REM options -cpp -iprefix /lustre/shared/ucl/apps/gcc/4.9.2/bin/../lib/gcc/x86_64-unknown-linux-gnu/4.9.2/ -mtune=corei7 -march=x86-64 -g -Og
REM COMMAND_LINE
REM seed -762417084 -487777771 -1969890168 158574485 1109604531 -271792530 -679552186 412043556 -2142234376 -640998235 -590648129 548359560
REM
REM S 3|1.8|5|6|7|30:31:32(qc=5)
REM O 2|1.5|12|13|15|20:21(qc=5)
REM Li 1|1.3|8|9|10|10U:20(qc=5)
REM Fe 3|2.2|2.0|1.0|8|9|10|40:41:32(qc=5)
REM 
CELL 1.54180    4.00525    4.00525   11.25020   79.74627   79.74627   60.00000
LATT -1
SFAC Li O  S  Fe 
Li     1 -0.5133110000000 -0.0590740000000  0.2268940000000 1.0
Li     1 -0.0590740000000  0.3454910000000  0.2268940000000 1.0
Li     1  0.3454910000000 -0.5133110000000  0.2268940000000 1.0
Li     1 -0.3305870000000 -0.3305870000000  0.9917600000000 1.0
Li     1 -0.2146240000000 -0.2146240000000  0.6438730000000 1.0
O      2 -0.0834650000000 -0.0834650000000  0.2503950000000 1.0
O      2  0.2106830000000  0.2106830000000 -0.6320500000000 1.0
S      3  0.3214440000000  0.3214440000000 -0.9643320000000 1.0
S      3 -0.5064570000000 -0.5064570000000  1.5193700000000 1.0
Fe     4 -0.1407480000000 -0.1407480000000  0.4222430000000 1.0
END
