TITL LFSO-Li6FeSO3-200909-224327-d2896b 0.0289 465.244225 -7.36104528E+003 8.00000 8.42652 22 (Ama2) n - 1
REM
REM Run started: Thu, 10 Sep 2020 11:00:28 +0100 in /lustre/scratch/uccabz1/launch_tmp/launcher_2020-09-09-21-43-25-820882
REM CASTEP 20.1 from code version af48c487+ pr-geom-scf-spinfix Tue Jun 2 15:39:59 2020 +0100
REM Functional Perdew Burke Ernzerhof Relativity Koelling-Harmon Dispersion off
REM Cut-off 340.0000 eV Grid scale 1.7500 Gmax 16.5316 1/A FBSC none
REM MP grid 3 3 3 Offset 0.000 0.000 0.000 No. kpts 8 Spacing 0.07
REM Total runtime: 52156.1 s
REM Overall efficiency: 97.8462 %
REM
REM
REM
REM compiler GCC version 4.9.2
REM options -cpp -iprefix /lustre/shared/ucl/apps/gcc/4.9.2/bin/../lib/gcc/x86_64-unknown-linux-gnu/4.9.2/ -mtune=corei7 -march=x86-64 -g -Og
REM COMMAND_LINE
REM seed 78952595 602012376 -23734836 707116266 1752576461 -1382243393 -886478119 503943667 1829344564 562952569 -1921344635 1682972112
REM
REM S 3|1.8|5|6|7|30:31:32(qc=5)
REM O 2|1.5|12|13|15|20:21(qc=5)
REM Li 1|1.3|8|9|10|10U:20(qc=5)
REM Fe 3|2.2|2.0|1.0|8|9|10|40:41:32(qc=5)
REM 
CELL 1.54180    6.87126   13.40240   13.40240  157.85535   90.00000   90.00000
LATT -1
SFAC Li O  S  Fe 
Li     1  0.0716190000000  0.1380000000000  0.4533940000000 1.0  -0.01
Li     1 -0.0716190000000  0.4533940000000  0.1380000000000 1.0  -0.01
Li     1 -0.4283810000000  0.4533940000000  0.1380000000000 1.0  -0.01
Li     1  0.4283810000000  0.1380000000000  0.4533940000000 1.0  -0.01
Li     1 -0.4612580000000 -0.1146080000000 -0.3836290000000 1.0   0.01
Li     1  0.4612580000000 -0.3836290000000 -0.1146080000000 1.0   0.01
Li     1  0.0387420000000 -0.3836290000000 -0.1146080000000 1.0   0.01
Li     1 -0.0387420000000 -0.1146080000000 -0.3836290000000 1.0   0.01
Li     1 -0.0515000000000 -0.0922150000000  0.4494350000000 1.0  -0.05
Li     1  0.0515000000000  0.4494350000000 -0.0922150000000 1.0  -0.05
Li     1 -0.5515000000000  0.4494350000000 -0.0922150000000 1.0  -0.05
Li     1  0.5515000000000 -0.0922150000000  0.4494350000000 1.0  -0.05
O      2 -0.5005950000000 -0.1945410000000  0.2018470000000 1.0   0.22
O      2  0.5005950000000  0.2018470000000 -0.1945410000000 1.0   0.22
O      2 -0.0005950000000  0.2018470000000 -0.1945410000000 1.0   0.22
O      2  0.0005950000000 -0.1945410000000  0.2018470000000 1.0   0.22
O      2 -0.2500000000000 -0.2829870000000 -0.6036280000000 1.0   0.02
O      2  0.2500000000000 -0.6036280000000 -0.2829870000000 1.0   0.02
S      3  0.2500000000000 -0.4061130000000  0.3273160000000 1.0   0.23
S      3 -0.2500000000000  0.3273160000000 -0.4061130000000 1.0   0.23
Fe     4 -0.2500000000000 -0.0934930000000  0.2682120000000 1.0   3.40
Fe     4  0.2500000000000  0.2682120000000 -0.0934930000000 1.0   3.40
END
