TITL LFSO-Li2Fe4SO4-200912-000803-7e8c69 -0.1172 360.155378 -1.18064709E+004 19.6753 22.0984 22 (P3) n - 1
REM
REM Run started: Mon, 14 Sep 2020 07:33:38 +0100 in /lustre/scratch/uccabz1/launch_tmp/launcher_2020-09-13-23-05-13-007661
REM CASTEP 20.1 from code version af48c487+ pr-geom-scf-spinfix Tue Jun 2 15:39:59 2020 +0100
REM Functional Perdew Burke Ernzerhof Relativity Koelling-Harmon Dispersion off
REM Cut-off 340.0000 eV Grid scale 1.7500 Gmax 16.5316 1/A FBSC none
REM MP grid 4 4 1 Offset 0.000 0.000 0.000 No. kpts 8 Spacing 0.07
REM Total runtime: 117382 s
REM Overall efficiency: 98.6364 %
REM
REM
REM
REM compiler GCC version 4.9.2
REM options -cpp -iprefix /lustre/shared/ucl/apps/gcc/4.9.2/bin/../lib/gcc/x86_64-unknown-linux-gnu/4.9.2/ -mtune=corei7 -march=x86-64 -g -Og
REM COMMAND_LINE
REM seed -1465948980 -881728067 -1372536248 -1859731582 -802035537 1189953804 -1089013775 -1778933281 639811124 -1306604802 1923153610 1014254636
REM
REM S 3|1.8|5|6|7|30:31:32(qc=5)
REM O 2|1.5|12|13|15|20:21(qc=5)
REM Li 1|1.3|8|9|10|10U:20(qc=5)
REM Fe 3|2.2|2.0|1.0|8|9|10|40:41:32(qc=5)
REM 
CELL 1.54180    5.21832    5.21832   15.27205   90.00000   90.00000  120.00000
LATT -1
SFAC Li O  S  Fe 
Li     1 -0.0072370000000 -0.4121850000000  0.0548950000000 1.0  -0.03
Li     1  0.4121850000000  0.4049470000000  0.0548950000000 1.0  -0.03
Li     1 -0.4049470000000  0.0072370000000  0.0548950000000 1.0  -0.03
Li     1 -0.3333330000000  0.3333330000000  0.4160000000000 1.0   0.00
O      2  0.0113950000000 -0.3644520000000  0.4689120000000 1.0   0.16
O      2  0.3644520000000  0.3758470000000  0.4689120000000 1.0   0.16
O      2 -0.3758470000000 -0.0113950000000  0.4689120000000 1.0   0.16
O      2 -0.0427230000000 -0.3520290000000  0.2272730000000 1.0  -0.07
O      2  0.3520290000000  0.3093060000000  0.2272730000000 1.0  -0.07
O      2 -0.3093060000000  0.0427230000000  0.2272730000000 1.0  -0.07
O      2  0.0000000000000  0.0000000000000 -0.2040820000000 1.0   0.23
O      2  0.3333330000000 -0.3333330000000  0.0780660000000 1.0   0.40
S      3  0.0000000000000  0.0000000000000 -0.3787140000000 1.0   0.04
S      3  0.0000000000000  0.0000000000000 -0.0231580000000 1.0   0.09
Fe     4  0.2960360000000 -0.0685110000000 -0.2770490000000 1.0   3.02
Fe     4  0.0685110000000  0.3645470000000 -0.2770490000000 1.0   3.02
Fe     4 -0.3645470000000 -0.2960360000000 -0.2770490000000 1.0   3.02
Fe     4  0.2612810000000  0.3679740000000 -0.1333350000000 1.0   2.88
Fe     4 -0.3679740000000 -0.1066930000000 -0.1333350000000 1.0   2.88
Fe     4  0.1066930000000 -0.2612810000000 -0.1333350000000 1.0   2.88
Fe     4  0.3333330000000 -0.3333330000000 -0.5177310000000 1.0   1.55
Fe     4 -0.3333330000000  0.3333330000000  0.2167700000000 1.0  -0.51
END
