TITL LFSO-LiFe3SO4-200909-014159-40d3d9 0.1020 378.515906 -9.68798386E+003 18.0014 18.6081 18 (Pma2) n - 1
REM
REM Run started: Wed, 09 Sep 2020 07:08:33 +0100 in /lustre/scratch/uccabz1/launch_tmp/launcher_2020-09-09-00-41-57-653759
REM CASTEP 20.1 from code version af48c487+ pr-geom-scf-spinfix Tue Jun 2 15:39:59 2020 +0100
REM Functional Perdew Burke Ernzerhof Relativity Koelling-Harmon Dispersion off
REM Cut-off 340.0000 eV Grid scale 1.7500 Gmax 16.5316 1/A FBSC none
REM MP grid 3 3 2 Offset 0.000 0.000 0.000 No. kpts 4 Spacing 0.07
REM Total runtime: 22081.1 s
REM Overall efficiency: 97.6667 %
REM
REM
REM
REM compiler GCC version 4.9.2
REM options -cpp -iprefix /lustre/shared/ucl/apps/gcc/4.9.2/bin/../lib/gcc/x86_64-unknown-linux-gnu/4.9.2/ -mtune=corei7 -march=x86-64 -g -Og
REM COMMAND_LINE
REM seed -1221608208 -1079849258 805255038 -1447872419 1153443611 882163472 787511344 925935663 -1019689971 -1044433575 547733721 807044318
REM
REM S 3|1.8|5|6|7|30:31:32(qc=5)
REM O 2|1.5|12|13|15|20:21(qc=5)
REM Li 1|1.3|8|9|10|10U:20(qc=5)
REM Fe 3|2.2|2.0|1.0|8|9|10|40:41:32(qc=5)
REM 
CELL 1.54180    6.03621    5.29029   11.85332   90.00000   90.00000   90.00000
LATT -1
SFAC Li O  S  Fe 
Li     1 -0.1298780000000  0.2818830000000 -0.2500000000000 1.0   0.02
Li     1  0.1298780000000  0.2818830000000  0.2500000000000 1.0   0.02
O      2  0.3861770000000  0.2530690000000  0.3597600000000 1.0   0.24
O      2 -0.3861770000000  0.2530690000000 -0.3597600000000 1.0   0.24
O      2 -0.3861770000000  0.2530690000000 -0.1402400000000 1.0   0.24
O      2  0.3861770000000  0.2530690000000  0.1402400000000 1.0   0.24
O      2 -0.3732000000000 -0.3349620000000  0.1399170000000 1.0   0.32
O      2  0.3732000000000 -0.3349620000000 -0.1399170000000 1.0   0.32
O      2  0.3732000000000 -0.3349620000000 -0.3600830000000 1.0   0.32
O      2 -0.3732000000000 -0.3349620000000  0.3600830000000 1.0   0.32
S      3 -0.1644140000000 -0.1978400000000 -0.2500000000000 1.0   0.12
S      3  0.1644140000000 -0.1978400000000  0.2500000000000 1.0   0.12
Fe     4  0.5412890000000 -0.0674900000000 -0.1507990000000 1.0   2.53
Fe     4 -0.5412890000000 -0.0674900000000  0.1507990000000 1.0   2.53
Fe     4 -0.5412890000000 -0.0674900000000  0.3492010000000 1.0   2.53
Fe     4  0.5412890000000 -0.0674900000000 -0.3492010000000 1.0   2.53
Fe     4  0.5290270000000  0.4478580000000  0.2500000000000 1.0   2.67
Fe     4 -0.5290270000000  0.4478580000000 -0.2500000000000 1.0   2.67
END
