TITL LFSO-Li5FeS3O-200910-094650-6d09ad 0.0269 157.121744 -3.21307013E+003 2.97193 3.12445 10 (P2) n - 1
REM
REM Run started: Thu, 10 Sep 2020 14:00:02 +0100 in /lustre/scratch/uccabz1/launch_tmp/launcher_2020-09-10-09-56-03-217619
REM CASTEP 20.1 from code version af48c487+ pr-geom-scf-spinfix Tue Jun 2 15:39:59 2020 +0100
REM Functional Perdew Burke Ernzerhof Relativity Koelling-Harmon Dispersion off
REM Cut-off 340.0000 eV Grid scale 1.7500 Gmax 16.5316 1/A FBSC none
REM MP grid 3 5 5 Offset 0.000 0.000 0.000 No. kpts 26 Spacing 0.07
REM Total runtime: 15212.1 s
REM Overall efficiency: 90.9167 %
REM
REM
REM
REM compiler GCC version 4.9.2
REM options -cpp -iprefix /lustre/shared/ucl/apps/gcc/4.9.2/bin/../lib/gcc/x86_64-unknown-linux-gnu/4.9.2/ -mtune=corei7 -march=x86-64 -g -Og
REM COMMAND_LINE
REM seed 1285521986 2093749139 1172154916 11755910 -1364117909 -1878213584 -578411469 2023685228 1715032213 -65515979 1354181271 -550853356
REM
REM S 3|1.8|5|6|7|30:31:32(qc=5)
REM O 2|1.5|12|13|15|20:21(qc=5)
REM Li 1|1.3|8|9|10|10U:20(qc=5)
REM Fe 3|2.2|2.0|1.0|8|9|10|40:41:32(qc=5)
REM 
CELL 1.54180    6.28749    7.51764    7.56370  153.92902   90.00000   90.00000
LATT -1
SFAC Li O  S  Fe 
Li     1 -0.5955070000000 -0.3136470000000  0.3477990000000 1.0   0.02
Li     1 -0.5955070000000  0.3136470000000 -0.3477990000000 1.0   0.02
Li     1  0.0636880000000 -0.1104620000000  0.2024320000000 1.0  -0.02
Li     1  0.0636880000000  0.1104620000000 -0.2024320000000 1.0  -0.02
Li     1  0.3794660000000  0.0000000000000  0.0000000000000 1.0   0.05
O      2  0.2254510000000  0.0000000000000  0.5000000000000 1.0   0.01
S      3 -0.3165910000000 -0.1126070000000  0.0948440000000 1.0   0.04
S      3 -0.3165910000000  0.1126070000000 -0.0948440000000 1.0   0.04
S      3  0.1336310000000 -0.5000000000000  0.5000000000000 1.0   0.24
Fe     4  0.7614570000000  0.5000000000000 -0.5000000000000 1.0   2.61
END
