TITL LFSO-Li2Fe4S2O3-200912-074640-81d790 0.0063 174.845284 -5.77362888E+003 12.1113 12.4788 11 (C2) n - 1
REM
REM Run started: Sat, 12 Sep 2020 11:04:07 +0100 in /lustre/scratch/uccabz1/launch_tmp/launcher_2020-09-12-06-46-38-548307
REM CASTEP 20.1 from code version af48c487+ pr-geom-scf-spinfix Tue Jun 2 15:39:59 2020 +0100
REM Functional Perdew Burke Ernzerhof Relativity Koelling-Harmon Dispersion off
REM Cut-off 340.0000 eV Grid scale 1.7500 Gmax 16.5316 1/A FBSC none
REM MP grid 6 3 2 Offset 0.000 0.000 0.000 No. kpts 18 Spacing 0.07
REM Total runtime: 11941.1 s
REM Overall efficiency: 95.75 %
REM
REM
REM
REM compiler GCC version 4.9.2
REM options -cpp -iprefix /lustre/shared/ucl/apps/gcc/4.9.2/bin/../lib/gcc/x86_64-unknown-linux-gnu/4.9.2/ -mtune=corei7 -march=x86-64 -g -Og
REM COMMAND_LINE
REM seed -1792739311 -676623506 -209125168 920983736 1273485401 1833431705 -1309437231 1289492323 -278424484 -1671390153 941622475 -132956231
REM
REM S 3|1.8|5|6|7|30:31:32(qc=5)
REM O 2|1.5|12|13|15|20:21(qc=5)
REM Li 1|1.3|8|9|10|10U:20(qc=5)
REM Fe 3|2.2|2.0|1.0|8|9|10|40:41:32(qc=5)
REM 
CELL 1.54180    2.87116    6.55800    9.54318   90.93304   94.26605   77.35525
LATT -1
SFAC Li O  S  Fe 
Li     1 -0.0678210000000 -0.2912320000000  0.3187210000000 1.0   0.02
Li     1  0.3590520000000 -0.2912320000000 -0.3187210000000 1.0   0.02
O      2 -0.0294360000000  0.5291400000000 -0.2641030000000 1.0   0.28
O      2 -0.4997040000000  0.5291400000000  0.2641030000000 1.0   0.28
O      2 -0.2768160000000 -0.4463690000000  0.0000000000000 1.0   0.32
S      3 -0.3283740000000  0.0561230000000 -0.2824300000000 1.0   0.07
S      3  0.2722510000000  0.0561230000000  0.2824300000000 1.0   0.07
Fe     4 -0.2776420000000  0.0786530000000  0.1031700000000 1.0   2.62
Fe     4  0.1989900000000  0.0786530000000 -0.1031700000000 1.0   2.62
Fe     4  0.6001110000000  0.4047920000000 -0.1523160000000 1.0   2.92
Fe     4 -0.0049030000000  0.4047920000000  0.1523160000000 1.0   2.92
END
