TITL LFSO-Li3Fe3S4O2-200929-230043-5074b5 -1.0436 499.274846 -1.05628541E+004 -12.1509 13.5508 24 (P1) n - 1
REM
REM Run started: Fri, 02 Oct 2020 10:52:54 +0100 in /scratch/scratch/mmm0366/launch_tmp/launcher_2020-10-02-08-35-24-018875
REM CASTEP 19.11| from code version Version unavailable
REM Functional Perdew Burke Ernzerhof Relativity Koelling-Harmon Dispersion off
REM Cut-off 340.0000 eV Grid scale 1.7500 Gmax 16.5316 1/A FBSC none
REM MP grid 4 3 1 Offset 0.000 0.000 0.000 No. kpts 6 Spacing 0.07
REM Total runtime: 172779 s
REM Overall efficiency: 98.0833 %
REM
REM
REM
REM compiler GCC version 4.9.2
REM options -cpp -iprefix /lustre/shared/ucl/apps/gcc/4.9.2/bin/../lib/gcc/x86_64-unknown-linux-gnu/4.9.2/ -mtune=corei7 -march=x86-64 -g -Og
REM COMMAND_LINE
REM seed 2090092100 1649650446 741908960 329656193 1836251877 458859109 180513181 800454756 -410689245 -535954461 1001704876 -1039908899
REM
REM S 3|1.8|5|6|7|30:31:32(qc=5)
REM O 2|1.5|12|13|15|20:21(qc=5)
REM Li 1|1.3|8|9|10|10U:20(qc=5)
REM Fe 3|2.2|2.0|1.0|8|9|10|40:41:32(qc=5)
REM 
CELL 1.54180    3.61904    6.82586   20.59025   90.00000   90.00000   78.98654
LATT -1
SFAC Li O  S  Fe 
Li     1 -0.3202940000000  0.4844610000000 -0.4293340000000 1.0  -0.04
Li     1  0.1797060000000  0.4844610000000  0.4293340000000 1.0  -0.04
Li     1 -0.0720290000000 -0.3038440000000 -0.3031840000000 1.0  -0.01
Li     1  0.4279710000000 -0.3038440000000  0.3031840000000 1.0  -0.01
Li     1  0.1293980000000  0.3549400000000  0.1528640000000 1.0  -0.01
Li     1 -0.3706020000000  0.3549400000000 -0.1528640000000 1.0  -0.01
O      2 -0.2797940000000  0.1220510000000 -0.0436190000000 1.0  -0.15
O      2  0.2202060000000  0.1220510000000  0.0436190000000 1.0  -0.15
O      2  0.1449320000000 -0.6769520000000 -0.1194520000000 1.0  -0.38
O      2  0.6449320000000 -0.6769520000000  0.1194520000000 1.0  -0.38
S      3 -0.4503980000000  0.0235330000000  0.2723890000000 1.0   0.01
S      3  0.0496020000000  0.0235330000000 -0.2723890000000 1.0   0.01
S      3  0.4947810000000 -0.2228650000000  0.4292390000000 1.0  -0.13
S      3 -0.0052190000000 -0.2228650000000 -0.4292390000000 1.0  -0.13
S      3  0.3085210000000  0.2400700000000 -0.4170070000000 1.0  -0.02
S      3 -0.1914790000000  0.2400700000000  0.4170070000000 1.0  -0.02
S      3  0.0004910000000  0.4821750000000  0.2751720000000 1.0  -0.03
S      3  0.5004910000000  0.4821750000000 -0.2751720000000 1.0  -0.03
Fe     4 -0.5655600000000 -0.0563520000000 -0.4642080000000 1.0  -2.25
Fe     4 -0.0655600000000 -0.0563520000000  0.4642080000000 1.0  -2.25
Fe     4  0.1970750000000  0.1843750000000 -0.0498410000000 1.0  -2.72
Fe     4 -0.3029250000000  0.1843750000000  0.0498410000000 1.0  -2.72
Fe     4 -0.5051870000000  0.1855470000000 -0.3109550000000 1.0  -0.34
Fe     4 -0.0051870000000  0.1855470000000  0.3109550000000 1.0  -0.34
END
