TITL LFSO-LiFe3S2O3-200909-160327-85db2b -0.0470 112.169667 -4.70735769E+003 0.519879E-01 0.970732E-01 9 (Fmm2) n - 1
REM
REM Run started: Wed, 09 Sep 2020 18:58:33 +0100 in /lustre/scratch/uccabz1/launch_tmp/launcher_2020-09-09-15-03-25-413501
REM CASTEP 20.1 from code version af48c487+ pr-geom-scf-spinfix Tue Jun 2 15:39:59 2020 +0100
REM Functional Perdew Burke Ernzerhof Relativity Koelling-Harmon Dispersion off
REM Cut-off 340.0000 eV Grid scale 1.7500 Gmax 16.5316 1/A FBSC none
REM MP grid 4 4 3 Offset 0.000 0.000 0.000 No. kpts 16 Spacing 0.07
REM Total runtime: 10612.6 s
REM Overall efficiency: 95 %
REM
REM
REM
REM compiler GCC version 4.9.2
REM options -cpp -iprefix /lustre/shared/ucl/apps/gcc/4.9.2/bin/../lib/gcc/x86_64-unknown-linux-gnu/4.9.2/ -mtune=corei7 -march=x86-64 -g -Og
REM COMMAND_LINE
REM seed -838061122 -33106241 -1369804738 -1114209358 -1889435258 675329164 -422625904 149811346 -1581970291 -461115388 -1649298898 563135105
REM
REM S 3|1.8|5|6|7|30:31:32(qc=5)
REM O 2|1.5|12|13|15|20:21(qc=5)
REM Li 1|1.3|8|9|10|10U:20(qc=5)
REM Fe 3|2.2|2.0|1.0|8|9|10|40:41:32(qc=5)
REM 
CELL 1.54180    4.84097    4.84097    5.89092  114.42503  114.42503   89.63499
LATT -1
SFAC Li O  S  Fe 
Li     1  0.3779420000000  0.3779420000000 -0.2441170000000 1.0   0.00
O      2 -0.3573000000000  0.1427000000000  0.2854010000000 1.0   0.01
O      2  0.1427000000000 -0.3573000000000  0.2854010000000 1.0   0.01
O      2 -0.4398690000000 -0.4398690000000  0.1202620000000 1.0   0.00
S      3  0.0383760000000 -0.3055930000000 -0.2672170000000 1.0   0.00
S      3 -0.3055930000000  0.0383760000000 -0.2672170000000 1.0   0.00
Fe     4  0.5104250000000  0.5104250000000  0.3831650000000 1.0   0.03
Fe     4 -0.1272600000000 -0.1272600000000  0.3831650000000 1.0   0.03
Fe     4  0.0515910000000  0.0515910000000  0.1031820000000 1.0  -0.01
END
