TITL LFSO-Li2Fe3S3O-200912-192433-654a41 -0.0256 122.967944 -4.33997610E+003 9.21690 9.40568 9 (P3m1) n - 1
REM
REM Run started: Sat, 12 Sep 2020 20:08:00 +0100 in /lustre/scratch/uccabz1/launch_tmp/launcher_2020-09-12-18-24-31-702014
REM CASTEP 20.1 from code version af48c487+ pr-geom-scf-spinfix Tue Jun 2 15:39:59 2020 +0100
REM Functional Perdew Burke Ernzerhof Relativity Koelling-Harmon Dispersion off
REM Cut-off 340.0000 eV Grid scale 1.7500 Gmax 16.5316 1/A FBSC none
REM MP grid 5 3 3 Offset 0.000 0.000 0.000 No. kpts 13 Spacing 0.07
REM Total runtime: 2671.41 s
REM Overall efficiency: 86.3333 %
REM
REM
REM
REM compiler GCC version 4.9.2
REM options -cpp -iprefix /lustre/shared/ucl/apps/gcc/4.9.2/bin/../lib/gcc/x86_64-unknown-linux-gnu/4.9.2/ -mtune=corei7 -march=x86-64 -g -Og
REM COMMAND_LINE
REM seed -1896702344 -1322889562 -1634308662 1772076981 805911621 -36012897 1255002091 1592404 689983389 -877904491 1946952740 1675855168
REM
REM S 3|1.8|5|6|7|30:31:32(qc=5)
REM O 2|1.5|12|13|15|20:21(qc=5)
REM Li 1|1.3|8|9|10|10U:20(qc=5)
REM Fe 3|2.2|2.0|1.0|8|9|10|40:41:32(qc=5)
REM 
CELL 1.54180    3.43231    6.43187    6.43187  120.00000   90.00000   90.00000
LATT -1
SFAC Li O  S  Fe 
Li     1  0.0919650000000 -0.3333330000000  0.3333330000000 1.0  -0.10
Li     1 -0.3828900000000  0.3333330000000 -0.3333330000000 1.0   0.01
O      2 -0.4076960000000 -0.3333330000000  0.3333330000000 1.0   0.12
S      3  0.0978870000000  0.1677060000000 -0.1631320000000 1.0   0.12
S      3  0.0978870000000  0.1631320000000  0.3308380000000 1.0   0.12
S      3  0.0978870000000 -0.3308380000000 -0.1677060000000 1.0   0.12
Fe     4 -0.4079640000000 -0.1323830000000  0.1290870000000 1.0   2.95
Fe     4 -0.4079640000000 -0.1290870000000 -0.2614700000000 1.0   2.95
Fe     4 -0.4079640000000  0.2614700000000  0.1323830000000 1.0   2.95
END
