TITL LFSO-Li3FeS2O-200911-174240-db1c38 0.0365 746.966046 -5.01786364E+003 -6.01573 6.62456 14 (Pm) n - 1
REM
REM Run started: Sat, 12 Sep 2020 02:23:02 +0100 in /lustre/scratch/uccabz1/launch_tmp/launcher_2020-09-11-16-42-38-890283
REM CASTEP 20.1 from code version af48c487+ pr-geom-scf-spinfix Tue Jun 2 15:39:59 2020 +0100
REM Functional Perdew Burke Ernzerhof Relativity Koelling-Harmon Dispersion off
REM Cut-off 340.0000 eV Grid scale 1.7500 Gmax 16.5316 1/A FBSC none
REM MP grid 1 3 3 Offset 0.000 0.000 0.000 No. kpts 5 Spacing 0.07
REM Total runtime: 39719.7 s
REM Overall efficiency: 73.8333 %
REM
REM
REM
REM compiler GCC version 4.9.2
REM options -cpp -iprefix /lustre/shared/ucl/apps/gcc/4.9.2/bin/../lib/gcc/x86_64-unknown-linux-gnu/4.9.2/ -mtune=corei7 -march=x86-64 -g -Og
REM COMMAND_LINE
REM seed -679900304 -1831963482 793027987 436064285 -1079049030 2101063905 2004894953 1932302775 -990065475 1794693870 -345750311 1907769246
REM
REM S 3|1.8|5|6|7|30:31:32(qc=5)
REM O 2|1.5|12|13|15|20:21(qc=5)
REM Li 1|1.3|8|9|10|10U:20(qc=5)
REM Fe 3|2.2|2.0|1.0|8|9|10|40:41:32(qc=5)
REM 
CELL 1.54180   22.80969    6.40454    6.71760  130.43290   90.00000   90.00000
LATT -1
SFAC Li O  S  Fe 
Li     1  0.3228130000000 -0.0607110000000  0.3954440000000 1.0  -0.04
Li     1 -0.3228130000000 -0.0607110000000  0.3954440000000 1.0  -0.04
Li     1  0.3392810000000 -0.3718160000000 -0.3002370000000 1.0  -0.02
Li     1 -0.3392810000000 -0.3718160000000 -0.3002370000000 1.0  -0.02
Li     1  0.2602750000000 -0.0242340000000 -0.2448360000000 1.0   0.00
Li     1 -0.2602750000000 -0.0242340000000 -0.2448360000000 1.0   0.00
O      2  0.3159130000000 -0.2925210000000 -0.5139170000000 1.0  -0.18
O      2 -0.3159130000000 -0.2925210000000 -0.5139170000000 1.0  -0.18
S      3 -0.3126110000000 -0.6461080000000 -0.1772510000000 1.0  -0.12
S      3  0.3126110000000 -0.6461080000000 -0.1772510000000 1.0  -0.12
S      3  0.3116150000000  0.0505270000000  0.1223470000000 1.0  -0.11
S      3 -0.3116150000000  0.0505270000000  0.1223470000000 1.0  -0.11
Fe     4 -0.3290450000000  0.4066010000000  0.1687980000000 1.0  -2.54
Fe     4  0.3290450000000  0.4066010000000  0.1687980000000 1.0  -2.54
END
