TITL LFSO-LiFeSO-200909-044002-7dafb4 0.0284 128.448351 -3.61059119E+003 5.21290 5.34500 8 (Cc) n - 1
REM
REM Run started: Wed, 09 Sep 2020 06:35:27 +0100 in /lustre/scratch/uccabz1/launch_tmp/launcher_2020-09-09-03-40-00-429147
REM CASTEP 20.1 from code version af48c487+ pr-geom-scf-spinfix Tue Jun 2 15:39:59 2020 +0100
REM Functional Perdew Burke Ernzerhof Relativity Koelling-Harmon Dispersion off
REM Cut-off 340.0000 eV Grid scale 1.7500 Gmax 16.5316 1/A FBSC none
REM MP grid 4 3 3 Offset 0.000 0.000 0.000 No. kpts 18 Spacing 0.07
REM Total runtime: 7822.2 s
REM Overall efficiency: 96 %
REM
REM
REM
REM compiler GCC version 4.9.2
REM options -cpp -iprefix /lustre/shared/ucl/apps/gcc/4.9.2/bin/../lib/gcc/x86_64-unknown-linux-gnu/4.9.2/ -mtune=corei7 -march=x86-64 -g -Og
REM COMMAND_LINE
REM seed 976669794 -848104857 1764591033 -262506974 832995806 498951982 -344404097 1205167702 574720060 1820778275 858531368 1153835762
REM
REM S 3|1.8|5|6|7|30:31:32(qc=5)
REM O 2|1.5|12|13|15|20:21(qc=5)
REM Li 1|1.3|8|9|10|10U:20(qc=5)
REM Fe 3|2.2|2.0|1.0|8|9|10|40:41:32(qc=5)
REM 
CELL 1.54180    3.82364    5.76743    6.78616  115.38731  106.70525   89.22818
LATT -1
SFAC Li O  S  Fe 
Li     1  0.2343800000000  0.1901790000000 -0.2748180000000 1.0   0.01
Li     1  0.0091970000000  0.4649970000000  0.2748180000000 1.0   0.01
O      2 -0.5113190000000 -0.4581350000000  0.2371100000000 1.0   0.38
O      2 -0.2484290000000  0.3047540000000 -0.2371100000000 1.0   0.38
S      3 -0.0166840000000 -0.0158550000000  0.2394070000000 1.0   0.02
S      3  0.2439090000000 -0.2552630000000 -0.2394070000000 1.0   0.02
Fe     4  0.4325500000000 -0.2335510000000  0.1315030000000 1.0   2.20
Fe     4 -0.1989530000000 -0.3650540000000 -0.1315030000000 1.0   2.20
END
