TITL LFSO-Li2Fe2S2O-200913-133137-d54489 0.0078 92.462775 -3.17118253E+003 0.837146E-03 0.174292E-01 7 (R3m) n - 1
REM
REM Run started: Sun, 13 Sep 2020 16:48:29 +0100 in /lustre/scratch/uccabz1/launch_tmp/launcher_2020-09-13-12-31-35-287523
REM CASTEP 20.1 from code version af48c487+ pr-geom-scf-spinfix Tue Jun 2 15:39:59 2020 +0100
REM Functional Perdew Burke Ernzerhof Relativity Koelling-Harmon Dispersion off
REM Cut-off 340.0000 eV Grid scale 1.7500 Gmax 16.5316 1/A FBSC none
REM MP grid 5 5 2 Offset 0.000 0.000 0.000 No. kpts 15 Spacing 0.07
REM Total runtime: 11893.6 s
REM Overall efficiency: 92.8571 %
REM
REM
REM
REM compiler GCC version 4.9.2
REM options -cpp -iprefix /lustre/shared/ucl/apps/gcc/4.9.2/bin/../lib/gcc/x86_64-unknown-linux-gnu/4.9.2/ -mtune=corei7 -march=x86-64 -g -Og
REM COMMAND_LINE
REM seed 1507240496 1725175176 -567611047 908064557 1275992464 -121536821 -1985349914 -1104660223 -53822963 -110236870 -2136149086 -401832678
REM
REM S 3|1.8|5|6|7|30:31:32(qc=5)
REM O 2|1.5|12|13|15|20:21(qc=5)
REM Li 1|1.3|8|9|10|10U:20(qc=5)
REM Fe 3|2.2|2.0|1.0|8|9|10|40:41:32(qc=5)
REM 
CELL 1.54180    3.74391    3.74391    7.91778   76.32437   76.32437   60.00000
LATT -1
SFAC Li O  S  Fe 
Li     1 -0.4074790000000 -0.4074790000000  1.2224360000000 1.0   0.00
Li     1 -0.1573290000000 -0.1573290000000  0.4719860000000 1.0  -0.00
O      2  0.4143190000000  0.4143190000000 -1.2429580000000 1.0   0.00
S      3  0.0111020000000  0.0111020000000 -0.0333070000000 1.0   0.00
S      3  0.2252070000000  0.2252070000000 -0.6756210000000 1.0  -0.00
Fe     4 -0.2807480000000 -0.2807480000000  0.8422440000000 1.0   0.01
Fe     4  0.3302670000000  0.3302670000000 -0.9908010000000 1.0  -0.01
END
