TITL LFSO-Li4Fe3S4O-200926-005817-ce7792 -0.2268 407.627474 -1.00873271E+004 18.1417 18.7718 24 (F222) n - 1
REM
REM Run started: Sun, 27 Sep 2020 07:28:01 +0100 in /lustre/scratch/uccabz1/launch_tmp/launcher_2020-09-27-05-21-54-518331
REM CASTEP 20.1 from code version af48c487+ pr-geom-scf-spinfix Tue Jun 2 15:39:59 2020 +0100
REM Functional Perdew Burke Ernzerhof Relativity Koelling-Harmon Dispersion off
REM Cut-off 340.0000 eV Grid scale 1.7500 Gmax 16.5316 1/A FBSC none
REM MP grid 3 3 2 Offset 0.000 0.000 0.000 No. kpts 6 Spacing 0.07
REM Total runtime: 108892 s
REM Overall efficiency: 98.8462 %
REM
REM
REM
REM compiler GCC version 4.9.2
REM options -cpp -iprefix /lustre/shared/ucl/apps/gcc/4.9.2/bin/../lib/gcc/x86_64-unknown-linux-gnu/4.9.2/ -mtune=corei7 -march=x86-64 -g -Og
REM COMMAND_LINE
REM seed -1907365951 383645923 799016181 -2115601405 741733986 -1005315860 -705399233 1977735024 871944530 459309102 -1653773161 717573666
REM
REM S 3|1.8|5|6|7|30:31:32(qc=5)
REM O 2|1.5|12|13|15|20:21(qc=5)
REM Li 1|1.3|8|9|10|10U:20(qc=5)
REM Fe 3|2.2|2.0|1.0|8|9|10|40:41:32(qc=5)
REM 
CELL 1.54180    7.50852    7.50852    9.45504   99.86671   99.86671  124.64161
LATT -1
SFAC Li O  S  Fe 
Li     1  0.4295950000000  0.1560150000000  0.4144120000000 1.0  -0.02
Li     1 -0.2583980000000  0.0151830000000 -0.4144120000000 1.0  -0.02
Li     1 -0.0151830000000  0.2583980000000  0.4144120000000 1.0  -0.02
Li     1 -0.1560150000000 -0.4295950000000 -0.4144120000000 1.0  -0.02
Li     1  0.3763910000000  0.1505250000000  0.0892850000000 1.0   0.01
Li     1  0.0612410000000  0.2871060000000 -0.0892850000000 1.0   0.01
Li     1 -0.2871060000000 -0.0612410000000  0.0892850000000 1.0   0.01
Li     1 -0.1505250000000 -0.3763910000000 -0.0892850000000 1.0   0.01
O      2  0.5352590000000 -0.5352590000000 -0.5000000000000 1.0   0.23
O      2 -0.0352590000000  0.0352590000000  0.5000000000000 1.0   0.23
S      3 -0.4251400000000  0.2201490000000 -0.2857820000000 1.0   0.11
S      3  0.5059300000000 -0.1393580000000  0.2857820000000 1.0   0.11
S      3  0.1393580000000 -0.5059300000000 -0.2857820000000 1.0   0.11
S      3 -0.2201490000000  0.4251400000000  0.2857820000000 1.0   0.11
S      3  0.1240970000000 -0.0761930000000 -0.1802270000000 1.0   0.13
S      3  0.1040340000000  0.3043240000000  0.1802270000000 1.0   0.13
S      3 -0.3043240000000 -0.1040340000000 -0.1802270000000 1.0   0.13
S      3  0.0761930000000 -0.1240970000000  0.1802270000000 1.0   0.13
Fe     4  0.2222340000000  0.1242580000000 -0.3472720000000 1.0   2.98
Fe     4 -0.5284690000000  0.5695070000000  0.3472720000000 1.0   2.98
Fe     4 -0.5695070000000  0.5284690000000 -0.3472720000000 1.0   2.98
Fe     4 -0.1242580000000 -0.2222340000000  0.3472720000000 1.0   2.98
Fe     4  0.1149830000000 -0.3850170000000  0.2299650000000 1.0   2.43
Fe     4  0.3850170000000 -0.1149830000000 -0.2299650000000 1.0   2.43
END
