TITL LFSO-Li3Fe3S5O-201002-141054-db830a 0.0080 181.586162 -5.14855209E+003 -2.67388 3.03127 12 (P3) n - 1
REM
REM Run started: Fri, 02 Oct 2020 14:54:59 +0100 in /lustre/scratch/uccabz1/launch_tmp/launcher_2020-10-02-13-10-52-332723
REM CASTEP 20.1 from code version af48c487+ pr-geom-scf-spinfix Tue Jun 2 15:39:59 2020 +0100
REM Functional Perdew Burke Ernzerhof Relativity Koelling-Harmon Dispersion off
REM Cut-off 340.0000 eV Grid scale 1.7500 Gmax 16.5316 1/A FBSC none
REM MP grid 3 3 3 Offset 0.000 0.000 0.000 No. kpts 8 Spacing 0.07
REM Total runtime: 3189.03 s
REM Overall efficiency: 94.5 %
REM
REM
REM
REM compiler GCC version 4.9.2
REM options -cpp -iprefix /lustre/shared/ucl/apps/gcc/4.9.2/bin/../lib/gcc/x86_64-unknown-linux-gnu/4.9.2/ -mtune=corei7 -march=x86-64 -g -Og
REM COMMAND_LINE
REM seed -1361792215 -1590112338 -601896239 2031459543 -1649936551 -977092580 -1754468997 -1244077703 960034457 121581434 322598748 1862352590
REM
REM S 3|1.8|5|6|7|30:31:32(qc=5)
REM O 2|1.5|12|13|15|20:21(qc=5)
REM Li 1|1.3|8|9|10|10U:20(qc=5)
REM Fe 3|2.2|2.0|1.0|8|9|10|40:41:32(qc=5)
REM 
CELL 1.54180    5.70710    5.70710    6.43756   90.00000   90.00000  120.00000
LATT -1
SFAC Li O  S  Fe 
Li     1  0.3103190000000  0.3455940000000  0.1458260000000 1.0   0.00
Li     1  0.0352750000000 -0.3103190000000  0.1458260000000 1.0   0.00
Li     1 -0.3455940000000 -0.0352750000000  0.1458260000000 1.0   0.00
O      2  0.3333330000000 -0.3333330000000  0.2376240000000 1.0   0.01
S      3  0.3531580000000  0.0080580000000 -0.1663760000000 1.0   0.02
S      3 -0.3451000000000 -0.3531580000000 -0.1663760000000 1.0   0.02
S      3 -0.0080580000000  0.3451000000000 -0.1663760000000 1.0   0.02
S      3  0.3333330000000 -0.3333330000000 -0.5059470000000 1.0   0.03
S      3 -0.0000000000000  0.0000000000000  0.4070740000000 1.0  -0.08
Fe     4 -0.0001970000000 -0.3066020000000 -0.3484110000000 1.0  -0.90
Fe     4 -0.3064060000000  0.0001970000000 -0.3484110000000 1.0  -0.90
Fe     4  0.3066020000000  0.3064060000000 -0.3484110000000 1.0  -0.90
END
