TITL LFSO-Li4Fe3S4O-200925-204907-19a596 -0.0273 398.935104 -1.00843417E+004 17.8552 18.5793 24 (R3) n - 1
REM
REM Run started: Sat, 26 Sep 2020 13:59:40 +0100 in /lustre/scratch/uccabz1/launch_tmp/launcher_2020-09-26-06-52-36-051023
REM CASTEP 20.1 from code version af48c487+ pr-geom-scf-spinfix Tue Jun 2 15:39:59 2020 +0100
REM Functional Perdew Burke Ernzerhof Relativity Koelling-Harmon Dispersion off
REM Cut-off 340.0000 eV Grid scale 1.7500 Gmax 16.5316 1/A FBSC none
REM MP grid 3 3 3 Offset 0.000 0.000 0.000 No. kpts 6 Spacing 0.07
REM Total runtime: 36600.6 s
REM Overall efficiency: 94.6154 %
REM
REM
REM
REM compiler GCC version 4.9.2
REM options -cpp -iprefix /lustre/shared/ucl/apps/gcc/4.9.2/bin/../lib/gcc/x86_64-unknown-linux-gnu/4.9.2/ -mtune=corei7 -march=x86-64 -g -Og
REM COMMAND_LINE
REM seed -645421482 -1826519393 -561432871 -1898612369 -819444634 -746691332 1724990729 -611075168 -474366838 1218461708 -436609722 500758700
REM
REM S 3|1.8|5|6|7|30:31:32(qc=5)
REM O 2|1.5|12|13|15|20:21(qc=5)
REM Li 1|1.3|8|9|10|10U:20(qc=5)
REM Fe 3|2.2|2.0|1.0|8|9|10|40:41:32(qc=5)
REM 
CELL 1.54180    7.92651    7.92651    7.92651   66.14719   66.14719   66.14719
LATT -1
SFAC Li O  S  Fe 
Li     1 -0.1520100000000  0.3095560000000 -0.2330780000000 1.0   0.04
Li     1  0.3095560000000 -0.2330780000000 -0.1520100000000 1.0   0.04
Li     1 -0.2330780000000 -0.1520100000000  0.3095560000000 1.0   0.04
Li     1 -0.0840210000000 -0.3723440000000 -0.0047610000000 1.0  -0.11
Li     1 -0.3723440000000 -0.0047610000000 -0.0840210000000 1.0  -0.11
Li     1 -0.0047610000000 -0.0840210000000 -0.3723440000000 1.0  -0.11
Li     1 -0.2771160000000 -0.2771160000000 -0.2771160000000 1.0   0.02
Li     1  0.3353600000000  0.3353600000000  0.3353600000000 1.0  -0.07
O      2  0.2423420000000  0.2423420000000  0.2423420000000 1.0   0.11
O      2 -0.1823690000000 -0.1823690000000 -0.1823690000000 1.0   0.04
S      3 -0.2629470000000  0.2391460000000 -0.4479240000000 1.0   0.23
S      3  0.2391460000000 -0.4479240000000 -0.2629470000000 1.0   0.23
S      3 -0.4479240000000 -0.2629470000000  0.2391460000000 1.0   0.23
S      3  0.4478740000000  0.0021950000000 -0.4462510000000 1.0   0.10
S      3  0.0021950000000 -0.4462510000000  0.4478740000000 1.0   0.10
S      3 -0.4462510000000  0.4478740000000  0.0021950000000 1.0   0.10
S      3 -0.0044200000000 -0.0044200000000 -0.0044200000000 1.0   0.05
S      3  0.1104490000000  0.1104490000000  0.1104490000000 1.0   0.09
Fe     4  0.3357790000000  0.3310010000000 -0.0216650000000 1.0   2.57
Fe     4  0.3310010000000 -0.0216650000000  0.3357790000000 1.0   2.57
Fe     4 -0.0216650000000  0.3357790000000  0.3310010000000 1.0   2.57
Fe     4 -0.3731010000000 -0.5789710000000  0.2823220000000 1.0   3.05
Fe     4 -0.5789710000000  0.2823220000000 -0.3731010000000 1.0   3.05
Fe     4  0.2823220000000 -0.3731010000000 -0.5789710000000 1.0   3.05
END
