TITL LFSO-Li2Fe4SO4-200912-012437-60227d -0.0252 387.043597 -1.18145908E+004 -13.9694 17.3025 22 (Cm) n - 1
REM
REM Run started: Sun, 13 Sep 2020 08:55:08 +0100 in /lustre/scratch/uccabz1/launch_tmp/launcher_2020-09-12-08-10-51-109296
REM CASTEP 20.1 from code version af48c487+ pr-geom-scf-spinfix Tue Jun 2 15:39:59 2020 +0100
REM Functional Perdew Burke Ernzerhof Relativity Koelling-Harmon Dispersion off
REM Cut-off 340.0000 eV Grid scale 1.7500 Gmax 16.5316 1/A FBSC none
REM MP grid 3 3 2 Offset 0.000 0.000 0.000 No. kpts 9 Spacing 0.07
REM Total runtime: 101371 s
REM Overall efficiency: 98.5833 %
REM
REM
REM
REM compiler GCC version 4.9.2
REM options -cpp -iprefix /lustre/shared/ucl/apps/gcc/4.9.2/bin/../lib/gcc/x86_64-unknown-linux-gnu/4.9.2/ -mtune=corei7 -march=x86-64 -g -Og
REM COMMAND_LINE
REM seed -1707940004 -14950093 1537538328 -404908118 -1253429559 350005040 880292598 -1057468966 803571781 666819975 872246003 -1972466860
REM
REM S 3|1.8|5|6|7|30:31:32(qc=5)
REM O 2|1.5|12|13|15|20:21(qc=5)
REM Li 1|1.3|8|9|10|10U:20(qc=5)
REM Fe 3|2.2|2.0|1.0|8|9|10|40:41:32(qc=5)
REM 
CELL 1.54180    6.85801    6.44335   11.28846   93.37077   72.31632   57.84723
LATT -1
SFAC Li O  S  Fe 
Li     1 -0.4651790000000  0.0447070000000  0.3861410000000 1.0  -0.00
Li     1  0.0343320000000  0.0447070000000  0.3861410000000 1.0  -0.00
Li     1  0.1946610000000 -0.4031890000000 -0.4818990000000 1.0   0.00
Li     1  0.6904280000000 -0.4031890000000 -0.4818990000000 1.0   0.00
O      2  0.3512570000000  0.2847050000000 -0.4563220000000 1.0  -0.06
O      2  0.8203590000000  0.2847050000000 -0.4563220000000 1.0  -0.06
O      2  0.1795850000000 -0.0350590000000  0.2006080000000 1.0  -0.22
O      2 -0.3451340000000 -0.0350590000000  0.2006080000000 1.0  -0.22
O      2 -0.7579050000000 -0.3105810000000  0.3692940000000 1.0  -0.36
O      2 -0.3008080000000 -0.3105810000000  0.3692940000000 1.0  -0.36
O      2 -0.4786010000000  0.4313290000000  0.0334960000000 1.0  -0.09
O      2  0.0137760000000  0.4313290000000  0.0334960000000 1.0  -0.09
S      3 -0.1011890000000 -0.1112820000000 -0.2372850000000 1.0  -0.00
S      3  0.4497560000000 -0.1112820000000 -0.2372850000000 1.0  -0.00
Fe     4 -0.2120560000000  0.6293150000000  0.2054670000000 1.0  -2.72
Fe     4 -0.6227260000000  0.6293150000000  0.2054670000000 1.0  -2.72
Fe     4  0.4401030000000  0.1632350000000 -0.3379600000000 1.0  -1.45
Fe     4  0.7346230000000  0.1632350000000 -0.3379600000000 1.0  -1.45
Fe     4  0.2926470000000  0.2408120000000 -0.1115010000000 1.0   0.68
Fe     4 -0.4219580000000  0.2408120000000 -0.1115010000000 1.0   0.68
Fe     4  0.1679050000000  0.1862260000000  0.1134820000000 1.0  -2.75
Fe     4 -0.4676130000000  0.1862260000000  0.1134820000000 1.0  -2.75
END
