TITL LFSO-Li2Fe4S4O-200911-200911-cf3ef6 -0.1257 425.018810 -1.10146975E+004 -15.8761 16.7855 22 (R3) n - 1
REM
REM Run started: Sun, 13 Sep 2020 20:05:10 +0100 in /lustre/scratch/uccabz1/launch_tmp/launcher_2020-09-13-16-02-35-828460
REM CASTEP 20.1 from code version af48c487+ pr-geom-scf-spinfix Tue Jun 2 15:39:59 2020 +0100
REM Functional Perdew Burke Ernzerhof Relativity Koelling-Harmon Dispersion off
REM Cut-off 340.0000 eV Grid scale 1.7500 Gmax 16.5316 1/A FBSC none
REM MP grid 3 3 3 Offset 0.000 0.000 0.000 No. kpts 6 Spacing 0.07
REM Total runtime: 157019 s
REM Overall efficiency: 98.9 %
REM
REM
REM
REM compiler GCC version 4.9.2
REM options -cpp -iprefix /lustre/shared/ucl/apps/gcc/4.9.2/bin/../lib/gcc/x86_64-unknown-linux-gnu/4.9.2/ -mtune=corei7 -march=x86-64 -g -Og
REM COMMAND_LINE
REM seed -443182372 409784192 710410590 -1303586056 1906338529 -1079479183 -1326043344 -2031557339 978156819 307065771 -186133833 250056688
REM
REM S 3|1.8|5|6|7|30:31:32(qc=5)
REM O 2|1.5|12|13|15|20:21(qc=5)
REM Li 1|1.3|8|9|10|10U:20(qc=5)
REM Fe 3|2.2|2.0|1.0|8|9|10|40:41:32(qc=5)
REM 
CELL 1.54180   11.39753   11.39753   11.39753   34.55686   34.55686   34.55686
LATT -1
SFAC Li O  S  Fe 
Li     1 -0.3322760000000 -0.0629800000000  0.4255410000000 1.0  -0.01
Li     1 -0.0629800000000  0.4255410000000 -0.3322760000000 1.0  -0.01
Li     1  0.4255410000000 -0.3322760000000 -0.0629800000000 1.0  -0.01
Li     1 -0.0411720000000 -0.0411720000000 -0.0411720000000 1.0  -0.05
O      2 -0.4622460000000 -0.4622460000000 -0.4622460000000 1.0   0.01
O      2 -0.0989820000000 -0.0989820000000 -0.0989820000000 1.0  -0.20
S      3 -0.0104720000000  0.6138990000000  0.2908880000000 1.0  -0.17
S      3  0.6138990000000  0.2908880000000 -0.0104720000000 1.0  -0.17
S      3  0.2908880000000 -0.0104720000000  0.6138990000000 1.0  -0.17
S      3 -0.0054660000000 -0.0132700000000  0.5010110000000 1.0   0.04
S      3 -0.0132700000000  0.5010110000000 -0.0054660000000 1.0   0.04
S      3  0.5010110000000 -0.0054660000000 -0.0132700000000 1.0   0.04
S      3 -0.2761850000000 -0.2761850000000 -0.2761850000000 1.0  -0.07
S      3  0.4529660000000  0.4529660000000  0.4529660000000 1.0   0.05
Fe     4  0.3771380000000 -0.2403870000000  0.3745610000000 1.0  -0.91
Fe     4 -0.2403870000000  0.3745610000000  0.3771380000000 1.0  -0.91
Fe     4  0.3745610000000  0.3771380000000 -0.2403870000000 1.0  -0.91
Fe     4 -0.0251400000000 -0.4172130000000  0.1267030000000 1.0  -2.67
Fe     4 -0.4172130000000  0.1267030000000 -0.0251400000000 1.0  -2.67
Fe     4  0.1267030000000 -0.0251400000000 -0.4172130000000 1.0  -2.67
Fe     4  0.2742550000000  0.2742550000000  0.2742550000000 1.0  -2.98
Fe     4  0.1928930000000  0.1928930000000  0.1928930000000 1.0  -1.43
END
