TITL LFSO-Li3Fe3S2O4-200929-060226-456751 0.0160 274.852352 -1.11005195E+004 5.51089 6.26253 24 (Pc) n - 1
REM
REM Run started: Wed, 30 Sep 2020 14:25:29 +0100 in /lustre/scratch/uccabz1/launch_tmp/launcher_2020-09-29-05-02-24-687607
REM CASTEP 20.1 from code version af48c487+ pr-geom-scf-spinfix Tue Jun 2 15:39:59 2020 +0100
REM Functional Perdew Burke Ernzerhof Relativity Koelling-Harmon Dispersion off
REM Cut-off 340.0000 eV Grid scale 1.7500 Gmax 16.5316 1/A FBSC none
REM MP grid 5 2 2 Offset 0.000 0.000 0.000 No. kpts 5 Spacing 0.07
REM Total runtime: 116707 s
REM Overall efficiency: 76.7692 %
REM
REM
REM
REM compiler GCC version 4.9.2
REM options -cpp -iprefix /lustre/shared/ucl/apps/gcc/4.9.2/bin/../lib/gcc/x86_64-unknown-linux-gnu/4.9.2/ -mtune=corei7 -march=x86-64 -g -Og
REM COMMAND_LINE
REM seed 538112858 -1102217525 1999776643 -1852190276 -1311714829 -1885449462 -237348778 439699348 -382022856 1043754133 1292671559 -1399192446
REM
REM S 3|1.8|5|6|7|30:31:32(qc=5)
REM O 2|1.5|12|13|15|20:21(qc=5)
REM Li 1|1.3|8|9|10|10U:20(qc=5)
REM Fe 3|2.2|2.0|1.0|8|9|10|40:41:32(qc=5)
REM 
CELL 1.54180    2.90196    8.30544   11.40525   90.00000   89.05053   90.00000
LATT -1
SFAC Li O  S  Fe 
Li     1  0.0315940000000  0.2435040000000  0.0726950000000 1.0   0.00
Li     1  0.0315940000000 -0.2435040000000 -0.4273050000000 1.0   0.00
Li     1 -0.0857060000000 -0.0837510000000 -0.0425920000000 1.0  -0.00
Li     1 -0.0857060000000  0.0837510000000  0.4574080000000 1.0  -0.00
Li     1 -0.0867150000000 -0.3716430000000 -0.1342780000000 1.0   0.00
Li     1 -0.0867150000000  0.3716430000000  0.3657220000000 1.0   0.00
O      2 -0.5307250000000  0.1929470000000  0.3576840000000 1.0  -0.01
O      2 -0.5307250000000 -0.1929470000000 -0.1423160000000 1.0  -0.01
O      2  0.0332540000000  0.2067100000000 -0.4012500000000 1.0  -0.04
O      2  0.0332540000000 -0.2067100000000  0.0987500000000 1.0  -0.04
O      2  0.0227860000000 -0.1653800000000  0.4128920000000 1.0  -0.02
O      2  0.0227860000000  0.1653800000000 -0.0871080000000 1.0  -0.02
O      2  0.0302040000000  0.5668680000000  0.2761180000000 1.0  -0.02
O      2  0.0302040000000 -0.5668680000000 -0.2238820000000 1.0  -0.02
S      3 -0.4815310000000 -0.0822430000000 -0.2645120000000 1.0  -0.02
S      3 -0.4815310000000  0.0822430000000  0.2354880000000 1.0  -0.02
S      3  0.5312510000000 -0.4621060000000 -0.4702200000000 1.0   0.04
S      3  0.5312510000000  0.4621060000000  0.0297800000000 1.0   0.04
Fe     4 -0.4704460000000 -0.3095700000000  0.3598880000000 1.0   1.18
Fe     4 -0.4704460000000  0.3095700000000 -0.1401120000000 1.0   1.18
Fe     4  0.0262590000000 -0.1083130000000  0.2491400000000 1.0   0.45
Fe     4  0.0262590000000  0.1083130000000 -0.2508600000000 1.0   0.45
Fe     4  0.5310350000000 -0.3306390000000  0.1601650000000 1.0   1.18
Fe     4  0.5310350000000  0.3306390000000 -0.3398350000000 1.0   1.18
END
