TITL LFSO-Li4Fe2S3O2-200911-054613-42f234 -0.0618 181.012972 -4.31423364E+003 7.67928 7.74663 11 (C2/m) n - 1
REM
REM Run started: Fri, 11 Sep 2020 07:44:15 +0100 in /lustre/scratch/uccabz1/launch_tmp/launcher_2020-09-11-04-46-11-393173
REM CASTEP 20.1 from code version af48c487+ pr-geom-scf-spinfix Tue Jun 2 15:39:59 2020 +0100
REM Functional Perdew Burke Ernzerhof Relativity Koelling-Harmon Dispersion off
REM Cut-off 340.0000 eV Grid scale 1.7500 Gmax 16.5316 1/A FBSC none
REM MP grid 2 3 3 Offset 0.000 0.000 0.000 No. kpts 6 Spacing 0.07
REM Total runtime: 7533.59 s
REM Overall efficiency: 85.5 %
REM
REM
REM
REM compiler GCC version 4.9.2
REM options -cpp -iprefix /lustre/shared/ucl/apps/gcc/4.9.2/bin/../lib/gcc/x86_64-unknown-linux-gnu/4.9.2/ -mtune=corei7 -march=x86-64 -g -Og
REM COMMAND_LINE
REM seed -1731127593 1992236997 91506877 -46663210 -655027581 -643729879 1956648453 777443228 -1213707801 1291836522 -1674471269 -260826570
REM
REM S 3|1.8|5|6|7|30:31:32(qc=5)
REM O 2|1.5|12|13|15|20:21(qc=5)
REM Li 1|1.3|8|9|10|10U:20(qc=5)
REM Fe 3|2.2|2.0|1.0|8|9|10|40:41:32(qc=5)
REM 
CELL 1.54180    7.53508    4.91868    4.91868   88.82115   94.78662   94.78662
LATT -1
SFAC Li O  S  Fe 
Li     1 -0.6870240000000  0.0446290000000 -0.4356360000000 1.0  -0.00
Li     1  0.6870240000000  0.4356360000000 -0.0446290000000 1.0  -0.00
Li     1  0.6870240000000 -0.0446290000000  0.4356360000000 1.0  -0.00
Li     1 -0.6870240000000 -0.4356360000000  0.0446290000000 1.0  -0.00
O      2  0.0000000000000 -0.5000000000000  0.0000000000000 1.0   0.33
O      2  0.0000000000000  0.0000000000000  0.5000000000000 1.0   0.33
S      3 -0.7377210000000 -0.4697980000000 -0.4697980000000 1.0   0.26
S      3  0.7377210000000  0.4697980000000  0.4697980000000 1.0   0.26
S      3 -0.5000000000000  0.0000000000000  0.0000000000000 1.0   0.14
Fe     4 -0.0000000000000  0.3208060000000 -0.3208060000000 1.0   3.18
Fe     4  0.0000000000000 -0.3208060000000  0.3208060000000 1.0   3.18
END
