TITL LFSO-Li6FeSO3-200909-224724-19c124 0.0099 128.297660 -3.68053638E+003 4.00004 4.06590 11 (R3) n - 1
REM
REM Run started: Wed, 09 Sep 2020 23:55:13 +0100 in /lustre/scratch/uccabz1/launch_tmp/launcher_2020-09-09-21-47-22-028778
REM CASTEP 20.1 from code version af48c487+ pr-geom-scf-spinfix Tue Jun 2 15:39:59 2020 +0100
REM Functional Perdew Burke Ernzerhof Relativity Koelling-Harmon Dispersion off
REM Cut-off 340.0000 eV Grid scale 1.7500 Gmax 16.5316 1/A FBSC none
REM MP grid 3 3 3 Offset 0.000 0.000 0.000 No. kpts 6 Spacing 0.07
REM Total runtime: 4149.14 s
REM Overall efficiency: 93.1429 %
REM
REM
REM
REM compiler GCC version 4.9.2
REM options -cpp -iprefix /lustre/shared/ucl/apps/gcc/4.9.2/bin/../lib/gcc/x86_64-unknown-linux-gnu/4.9.2/ -mtune=corei7 -march=x86-64 -g -Og
REM COMMAND_LINE
REM seed 1835988117 1355038920 449479195 -1751632822 -85115034 663423557 187525611 -1540786604 1278515010 1802616745 -899915982 -84084649
REM
REM S 3|1.8|5|6|7|30:31:32(qc=5)
REM O 2|1.5|12|13|15|20:21(qc=5)
REM Li 1|1.3|8|9|10|10U:20(qc=5)
REM Fe 3|2.2|2.0|1.0|8|9|10|40:41:32(qc=5)
REM 
CELL 1.54180    5.21457    5.21457    5.21457  103.23671  103.23671  103.23671
LATT -1
SFAC Li O  S  Fe 
Li     1 -0.3280320000000  0.5356590000000 -0.0009610000000 1.0   0.04
Li     1  0.5356590000000 -0.0009610000000 -0.3280320000000 1.0   0.04
Li     1 -0.0009610000000 -0.3280320000000  0.5356590000000 1.0   0.04
Li     1  0.6537690000000  0.0661880000000  0.1386980000000 1.0  -0.06
Li     1  0.0661880000000  0.1386980000000  0.6537690000000 1.0  -0.06
Li     1  0.1386980000000  0.6537690000000  0.0661880000000 1.0  -0.06
O      2  0.2766460000000 -0.0754360000000 -0.1239910000000 1.0   0.15
O      2 -0.0754360000000 -0.1239910000000  0.2766460000000 1.0   0.15
O      2 -0.1239910000000  0.2766460000000 -0.0754360000000 1.0   0.15
S      3 -0.5074450000000 -0.5074450000000 -0.5074450000000 1.0   0.10
Fe     4  0.1524350000000  0.1524350000000  0.1524350000000 1.0   3.50
END
