TITL LFSO-Li4Fe3S2O3-200927-231834-2b681d 0.0339 401.166916 -1.06214877E+004 20.0477 20.5502 24 (Ccc2) n - 1
REM
REM Run started: Mon, 28 Sep 2020 05:38:50 +0100 in /scratch/scratch/uccabz1/launch_tmp/launcher_2020-09-27-22-18-31-538128
REM CASTEP 19.11| from code version Version unavailable
REM Functional Perdew Burke Ernzerhof Relativity Koelling-Harmon Dispersion off
REM Cut-off 340.0000 eV Grid scale 1.7500 Gmax 16.5316 1/A FBSC none
REM MP grid 3 2 2 Offset 0.000 0.000 0.000 No. kpts 3 Spacing 0.07
REM Total runtime: 22940.8 s
REM Overall efficiency: 97.2222 %
REM
REM
REM
REM compiler GCC version 4.9.2
REM options -cpp -iprefix /scratch/UCL/applications/gcc/4.9.2/bin/../lib/gcc/x86_64-unknown-linux-gnu/4.9.2/ -mtune=corei7 -march=x86-64 -g -O2
REM COMMAND_LINE
REM seed 1012670320 -1657369866 53820680 264803605 -429912033 1510139698 4565444 1921435995 877198673 -1258914663 -88133184 1115984492
REM
REM S 3|1.8|5|6|7|30:31:32(qc=5)
REM O 2|1.5|12|13|15|20:21(qc=5)
REM Li 1|1.3|8|9|10|10U:20(qc=5)
REM Fe 3|2.2|2.0|1.0|8|9|10|40:41:32(qc=5)
REM 
CELL 1.54180    5.86390    9.43186    7.82356   90.00000  112.00941   90.00000
LATT -1
SFAC Li O  S  Fe 
Li     1  0.1000160000000  0.2099630000000 -0.3258910000000 1.0  -0.05
Li     1 -0.1000160000000  0.2099630000000  0.3258910000000 1.0  -0.05
Li     1  0.5740930000000 -0.2900370000000 -0.3258910000000 1.0  -0.05
Li     1 -0.5740930000000 -0.2900370000000  0.3258910000000 1.0  -0.05
Li     1 -0.4842760000000  0.0095520000000 -0.2467160000000 1.0  -0.01
Li     1  0.4842760000000  0.0095520000000  0.2467160000000 1.0  -0.01
Li     1  0.2375600000000 -0.4904480000000 -0.2467160000000 1.0  -0.01
Li     1 -0.2375600000000 -0.4904480000000  0.2467160000000 1.0  -0.01
O      2 -0.1860630000000  0.0192940000000  0.3413430000000 1.0   0.20
O      2  0.1860630000000  0.0192940000000 -0.3413430000000 1.0   0.20
O      2  0.5274060000000 -0.4807060000000  0.3413430000000 1.0   0.20
O      2 -0.5274060000000 -0.4807060000000 -0.3413430000000 1.0   0.20
O      2 -0.5000000000000 -0.1133530000000  0.5000000000000 1.0   0.12
O      2  0.0000000000000  0.3866470000000  0.5000000000000 1.0   0.12
S      3  0.0173730000000 -0.2750640000000 -0.2164820000000 1.0   0.17
S      3 -0.0173730000000 -0.2750640000000  0.2164820000000 1.0   0.17
S      3 -0.2338560000000  0.2249360000000 -0.2164820000000 1.0   0.17
S      3  0.2338560000000  0.2249360000000  0.2164820000000 1.0   0.17
Fe     4  0.2847610000000  0.4282970000000  0.4258630000000 1.0   3.09
Fe     4 -0.2847610000000  0.4282970000000 -0.4258630000000 1.0   3.09
Fe     4  0.1411020000000 -0.0717030000000  0.4258630000000 1.0   3.09
Fe     4 -0.1411020000000 -0.0717030000000 -0.4258630000000 1.0   3.09
Fe     4  0.5000000000000  0.2021870000000 -0.5000000000000 1.0   3.11
Fe     4  0.0000000000000 -0.2978130000000  0.5000000000000 1.0   3.11
END
