TITL LFSO-Li5FeS2O2-200920-225047-1d0cd8 -0.1445 788.172710 -6.68784176E+003 6.01403 8.23683 20 (Cm) n - 1
REM
REM Run started: Mon, 21 Sep 2020 16:39:52 +0100 in /lustre/scratch/uccabz1/launch_tmp/launcher_2020-09-21-14-24-42-336030
REM CASTEP 20.1 from code version af48c487+ pr-geom-scf-spinfix Tue Jun 2 15:39:59 2020 +0100
REM Functional Perdew Burke Ernzerhof Relativity Koelling-Harmon Dispersion off
REM Cut-off 340.0000 eV Grid scale 1.7500 Gmax 16.5316 1/A FBSC none
REM MP grid 4 2 2 Offset 0.000 0.000 0.000 No. kpts 8 Spacing 0.07
REM Total runtime: 59357.2 s
REM Overall efficiency: 89.6364 %
REM
REM
REM
REM compiler GCC version 4.9.2
REM options -cpp -iprefix /lustre/shared/ucl/apps/gcc/4.9.2/bin/../lib/gcc/x86_64-unknown-linux-gnu/4.9.2/ -mtune=corei7 -march=x86-64 -g -Og
REM COMMAND_LINE
REM seed 1771544974 1626728961 -831256632 -1333464724 226358721 1330814126 -2068058243 -2106330696 1667462477 1319775305 758059682 1110128567
REM
REM S 3|1.8|5|6|7|30:31:32(qc=5)
REM O 2|1.5|12|13|15|20:21(qc=5)
REM Li 1|1.3|8|9|10|10U:20(qc=5)
REM Fe 3|2.2|2.0|1.0|8|9|10|40:41:32(qc=5)
REM 
CELL 1.54180    3.79621   24.55530   14.96752  145.11345   84.86465   90.00000
LATT -1
SFAC Li O  S  Fe 
Li     1 -0.3755730000000 -0.3607520000000 -0.3573620000000 1.0  -0.01
Li     1 -0.3755730000000  0.0033900000000 -0.3573620000000 1.0  -0.01
Li     1 -0.4136990000000 -0.1687500000000  0.0300230000000 1.0  -0.11
Li     1 -0.4136990000000  0.1987730000000  0.0300230000000 1.0  -0.11
Li     1  0.0749370000000  0.3545240000000  0.3565030000000 1.0  -0.51
Li     1  0.0749370000000  0.0019790000000  0.3565030000000 1.0  -0.51
Li     1  0.1509450000000  0.2986110000000  0.0488150000000 1.0   0.03
Li     1  0.1509450000000 -0.2497950000000  0.0488150000000 1.0   0.03
Li     1  0.7320250000000 -0.3467480000000 -0.1564860000000 1.0  -0.00
Li     1  0.7320250000000  0.1902620000000 -0.1564860000000 1.0  -0.00
O      2  0.2544140000000  0.1592090000000 -0.1778470000000 1.0   0.01
O      2  0.2544140000000 -0.3370560000000 -0.1778470000000 1.0   0.01
O      2 -0.3659060000000 -0.2262800000000  0.0779570000000 1.0   0.19
O      2 -0.3659060000000  0.3042370000000  0.0779570000000 1.0   0.19
S      3  0.0124600000000 -0.0400250000000  0.4518990000000 1.0   0.13
S      3  0.0124600000000  0.4919240000000  0.4518990000000 1.0   0.13
S      3  0.1333450000000 -0.2536080000000 -0.1516940000000 1.0  -0.00
S      3  0.1333450000000  0.1019150000000 -0.1516940000000 1.0  -0.00
Fe     4  0.5690560000000 -0.1097310000000  0.2965860000000 1.0   3.29
Fe     4  0.5690560000000  0.4063170000000  0.2965860000000 1.0   3.29
END
