TITL LFSO-Li2Fe3S3O-200912-212503-80ca28 0.0455 153.790031 -4.33989857E+003 -10.1421 10.2388 9 (C2) n - 1
REM
REM Run started: Sun, 13 Sep 2020 01:30:29 +0100 in /lustre/scratch/uccabz1/launch_tmp/launcher_2020-09-12-20-25-02-358557
REM CASTEP 20.1 from code version af48c487+ pr-geom-scf-spinfix Tue Jun 2 15:39:59 2020 +0100
REM Functional Perdew Burke Ernzerhof Relativity Koelling-Harmon Dispersion off
REM Cut-off 340.0000 eV Grid scale 1.7500 Gmax 16.5316 1/A FBSC none
REM MP grid 5 3 3 Offset 0.000 0.000 0.000 No. kpts 16 Spacing 0.07
REM Total runtime: 14775.7 s
REM Overall efficiency: 95.3846 %
REM
REM
REM
REM compiler GCC version 4.9.2
REM options -cpp -iprefix /lustre/shared/ucl/apps/gcc/4.9.2/bin/../lib/gcc/x86_64-unknown-linux-gnu/4.9.2/ -mtune=corei7 -march=x86-64 -g -Og
REM COMMAND_LINE
REM seed -1846945261 -237370261 -1260574717 -1370669750 1687553773 -1257025777 1691117171 -761558639 534535588 -924070853 1647079229 -2062864062
REM
REM S 3|1.8|5|6|7|30:31:32(qc=5)
REM O 2|1.5|12|13|15|20:21(qc=5)
REM Li 1|1.3|8|9|10|10U:20(qc=5)
REM Fe 3|2.2|2.0|1.0|8|9|10|40:41:32(qc=5)
REM 
CELL 1.54180    3.45778    7.41095    7.41095  113.79363   75.27106   75.27106
LATT -1
SFAC Li O  S  Fe 
Li     1  0.2010560000000  0.1213480000000  0.4980110000000 1.0  -0.05
Li     1 -0.2010560000000 -0.4980110000000 -0.1213480000000 1.0  -0.05
O      2  0.0000000000000 -0.3610640000000  0.3610640000000 1.0  -0.36
S      3  0.2147680000000 -0.2679240000000 -0.1857040000000 1.0  -0.16
S      3 -0.2147680000000  0.1857040000000  0.2679240000000 1.0  -0.16
S      3  0.5000000000000  0.2117410000000 -0.2117410000000 1.0  -0.17
Fe     4 -0.2765910000000 -0.1512410000000 -0.3163830000000 1.0  -3.15
Fe     4  0.2765910000000  0.3163830000000  0.1512410000000 1.0  -3.15
Fe     4  0.5000000000000 -0.4452480000000  0.4452480000000 1.0  -2.90
END
