TITL LFSO-Li3Fe3S2O4-200928-201845-1032d3 -0.0589 134.335009 -5.55054874E+003 8.99538 9.38317 12 (R3) n - 1
REM
REM Run started: Mon, 28 Sep 2020 21:41:37 +0100 in /lustre/scratch/uccabz1/launch_tmp/launcher_2020-09-28-19-18-43-222346
REM CASTEP 20.1 from code version af48c487+ pr-geom-scf-spinfix Tue Jun 2 15:39:59 2020 +0100
REM Functional Perdew Burke Ernzerhof Relativity Koelling-Harmon Dispersion off
REM Cut-off 340.0000 eV Grid scale 1.7500 Gmax 16.5316 1/A FBSC none
REM MP grid 4 4 4 Offset 0.000 0.000 0.000 No. kpts 12 Spacing 0.07
REM Total runtime: 5038.24 s
REM Overall efficiency: 93.7143 %
REM
REM
REM
REM compiler GCC version 4.9.2
REM options -cpp -iprefix /lustre/shared/ucl/apps/gcc/4.9.2/bin/../lib/gcc/x86_64-unknown-linux-gnu/4.9.2/ -mtune=corei7 -march=x86-64 -g -Og
REM COMMAND_LINE
REM seed -1902772052 -1487710419 2084652628 2009830190 -1651350484 756505138 -1310705335 1533303559 -1247659125 1054175690 353895681 1476969032
REM
REM S 3|1.8|5|6|7|30:31:32(qc=5)
REM O 2|1.5|12|13|15|20:21(qc=5)
REM Li 1|1.3|8|9|10|10U:20(qc=5)
REM Fe 3|2.2|2.0|1.0|8|9|10|40:41:32(qc=5)
REM 
CELL 1.54180    6.23930    6.23930    6.23930   50.76445   50.76445   50.76445
LATT -1
SFAC Li O  S  Fe 
Li     1 -0.2810030000000  0.0225710000000  0.3018810000000 1.0   0.00
Li     1  0.0225710000000  0.3018810000000 -0.2810030000000 1.0   0.00
Li     1  0.3018810000000 -0.2810030000000  0.0225710000000 1.0   0.00
O      2  0.2586790000000 -0.0317600000000 -0.4348510000000 1.0   0.22
O      2 -0.0317600000000 -0.4348510000000  0.2586790000000 1.0   0.22
O      2 -0.4348510000000  0.2586790000000 -0.0317600000000 1.0   0.22
O      2  0.0969040000000  0.0969040000000  0.0969040000000 1.0   0.46
S      3  0.4539250000000  0.4539250000000  0.4539250000000 1.0  -0.08
S      3 -0.2133580000000 -0.2133580000000 -0.2133580000000 1.0  -0.10
Fe     4  0.1963340000000  0.4623060000000 -0.0798200000000 1.0   2.69
Fe     4  0.4623060000000 -0.0798200000000  0.1963340000000 1.0   2.69
Fe     4 -0.0798200000000  0.1963340000000  0.4623060000000 1.0   2.69
END
