TITL LFSO-Li4Fe3S4O-200926-070852-c677d4 0.0003 213.363647 -5.04403670E+003 8.01840 8.38251 12 (C2) n - 1
REM
REM Run started: Sat, 26 Sep 2020 11:14:51 +0100 in /lustre/scratch/uccabz1/launch_tmp/launcher_2020-09-26-06-08-49-524734
REM CASTEP 20.1 from code version af48c487+ pr-geom-scf-spinfix Tue Jun 2 15:39:59 2020 +0100
REM Functional Perdew Burke Ernzerhof Relativity Koelling-Harmon Dispersion off
REM Cut-off 340.0000 eV Grid scale 1.7500 Gmax 16.5316 1/A FBSC none
REM MP grid 4 3 3 Offset 0.000 0.000 0.000 No. kpts 12 Spacing 0.07
REM Total runtime: 14843.8 s
REM Overall efficiency: 90 %
REM
REM
REM
REM compiler GCC version 4.9.2
REM options -cpp -iprefix /lustre/shared/ucl/apps/gcc/4.9.2/bin/../lib/gcc/x86_64-unknown-linux-gnu/4.9.2/ -mtune=corei7 -march=x86-64 -g -Og
REM COMMAND_LINE
REM seed 1222700541 -2135437063 -18858874 363167089 1156852418 -1660878509 -102099630 -1098877489 -292392042 -92933959 1010302423 597599046
REM
REM S 3|1.8|5|6|7|30:31:32(qc=5)
REM O 2|1.5|12|13|15|20:21(qc=5)
REM Li 1|1.3|8|9|10|10U:20(qc=5)
REM Fe 3|2.2|2.0|1.0|8|9|10|40:41:32(qc=5)
REM 
CELL 1.54180    3.81689    8.11034    8.11034  118.85086   82.92741   82.92741
LATT -1
SFAC Li O  S  Fe 
Li     1 -0.1312610000000  0.0200480000000  0.4685520000000 1.0   0.02
Li     1  0.1312610000000 -0.4685520000000 -0.0200480000000 1.0   0.02
Li     1  0.1989550000000  0.1991440000000  0.0155800000000 1.0  -0.01
Li     1 -0.1989550000000 -0.0155800000000 -0.1991440000000 1.0  -0.01
O      2 -0.5000000000000  0.4112150000000 -0.4112150000000 1.0   0.04
S      3  0.3587330000000 -0.0604820000000  0.6188930000000 1.0   0.10
S      3 -0.3587330000000 -0.6188930000000  0.0604820000000 1.0   0.10
S      3  0.1410020000000  0.1475480000000  0.2798110000000 1.0   0.07
S      3 -0.1410020000000 -0.2798110000000 -0.1475480000000 1.0   0.07
Fe     4 -0.4179420000000  0.3519760000000  0.3246320000000 1.0   2.71
Fe     4  0.4179420000000 -0.3246320000000 -0.3519760000000 1.0   2.71
Fe     4  0.0000000000000  0.4369980000000 -0.4369980000000 1.0   2.20
END
