TITL LFSO-Li3Fe3SO5-201002-011853-d85904 -0.3577 289.068285 -1.13688884E+004 20.7958 21.1987 24 (P1) n - 1
REM
REM Run started: Fri, 02 Oct 2020 11:06:42 +0100 in /scratch/scratch/mmm0366/launch_tmp/launcher_2020-10-02-00-18-51-600235
REM CASTEP 19.11| from code version Version unavailable
REM Functional Perdew Burke Ernzerhof Relativity Koelling-Harmon Dispersion off
REM Cut-off 340.0000 eV Grid scale 1.7500 Gmax 16.5316 1/A FBSC none
REM MP grid 5 2 2 Offset 0.000 0.000 0.000 No. kpts 6 Spacing 0.07
REM Total runtime: 39719.4 s
REM Overall efficiency: 95.5833 %
REM
REM
REM
REM compiler GCC version 4.9.2
REM options -cpp -iprefix /scratch/UCL/applications/gcc/4.9.2/bin/../lib/gcc/x86_64-unknown-linux-gnu/4.9.2/ -mtune=corei7 -march=x86-64 -g -O2
REM COMMAND_LINE
REM seed -2083727908 159360446 -558807400 1237440 1912752808 723378652 571027955 -88654365 161964240 62231610 -916662088 1695272137
REM
REM S 3|1.8|5|6|7|30:31:32(qc=5)
REM O 2|1.5|12|13|15|20:21(qc=5)
REM Li 1|1.3|8|9|10|10U:20(qc=5)
REM Fe 3|2.2|2.0|1.0|8|9|10|40:41:32(qc=5)
REM 
CELL 1.54180    3.12363    9.49395   10.30586  108.94656   90.00000   90.00000
LATT -1
SFAC Li O  S  Fe 
Li     1 -0.4815490000000  0.2503750000000 -0.6018620000000 1.0  -0.01
Li     1  0.4815490000000 -0.2496250000000 -0.1018620000000 1.0  -0.01
Li     1 -0.0241250000000 -0.0883990000000 -0.6013820000000 1.0   0.00
Li     1  0.0241250000000  0.4116010000000 -0.1013820000000 1.0   0.00
Li     1  0.0285380000000  0.0718530000000  0.2149150000000 1.0   0.02
Li     1 -0.0285380000000 -0.4281470000000 -0.2850850000000 1.0   0.02
O      2  0.4476130000000  0.0258750000000 -0.3831410000000 1.0   0.17
O      2 -0.4476130000000 -0.4741250000000  0.1168590000000 1.0   0.17
O      2  0.4657550000000 -0.3305760000000 -0.3330990000000 1.0   0.28
O      2 -0.4657550000000  0.1694240000000  0.1669010000000 1.0   0.28
O      2  0.0897770000000 -0.2425490000000  0.4779140000000 1.0   0.35
O      2 -0.0897770000000  0.2574510000000 -0.0220860000000 1.0   0.35
O      2  0.3272060000000 -0.0638010000000 -0.1463080000000 1.0   0.32
O      2 -0.3272060000000  0.4361990000000  0.3536920000000 1.0   0.32
O      2  0.0102390000000 -0.3760400000000 -0.0813030000000 1.0   0.35
O      2 -0.0102390000000  0.1239600000000  0.4186970000000 1.0   0.35
S      3  0.4814220000000  0.3355900000000 -0.3154990000000 1.0  -0.03
S      3 -0.4814220000000 -0.1644100000000  0.1845010000000 1.0  -0.03
Fe     4  0.3098120000000 -0.1399950000000 -0.3338100000000 1.0   2.74
Fe     4 -0.3098120000000  0.3600050000000  0.1661900000000 1.0   2.74
Fe     4 -0.4217240000000 -0.3738740000000 -0.5296930000000 1.0   3.82
Fe     4  0.4217240000000  0.1261260000000 -0.0296930000000 1.0   3.82
Fe     4  0.0279710000000 -0.3420330000000  0.1034320000000 1.0   2.67
Fe     4 -0.0279710000000  0.1579670000000 -0.3965680000000 1.0   2.67
END
