TITL LFSO-Li3Fe3S4O2-200929-191904-7cb66d -0.0013 454.943601 -1.05631590E+004 -19.8559 20.3567 24 (I-4) n - 1
REM
REM Run started: Thu, 01 Oct 2020 01:40:03 +0100 in /lustre/scratch/uccabz1/launch_tmp/launcher_2020-09-30-17-20-13-982008
REM CASTEP 20.1 from code version af48c487+ pr-geom-scf-spinfix Tue Jun 2 15:39:59 2020 +0100
REM Functional Perdew Burke Ernzerhof Relativity Koelling-Harmon Dispersion off
REM Cut-off 340.0000 eV Grid scale 1.7500 Gmax 16.5316 1/A FBSC none
REM MP grid 3 3 3 Offset 0.000 0.000 0.000 No. kpts 6 Spacing 0.07
REM Total runtime: 86434.8 s
REM Overall efficiency: 98.5833 %
REM
REM
REM
REM compiler GCC version 4.9.2
REM options -cpp -iprefix /scratch/UCL/applications/gcc/4.9.2/bin/../lib/gcc/x86_64-unknown-linux-gnu/4.9.2/ -mtune=corei7 -march=x86-64 -g -O2
REM COMMAND_LINE
REM seed 1449375905 805255038 826126036 648647054 1627325075 -635727320 1034678533 1503226179 -1979942724 544061098 -1095594910 1060130049
REM
REM S 3|1.8|5|6|7|30:31:32(qc=5)
REM O 2|1.5|12|13|15|20:21(qc=5)
REM Li 1|1.3|8|9|10|10U:20(qc=5)
REM Fe 3|2.2|2.0|1.0|8|9|10|40:41:32(qc=5)
REM 
CELL 1.54180    9.31918    9.31918    8.41813  123.60875  123.60875   90.00000
LATT -1
SFAC Li O  S  Fe 
Li     1  0.3725630000000  0.3840460000000  0.0956340000000 1.0  -0.01
Li     1 -0.2769290000000 -0.2884120000000  0.0956340000000 1.0  -0.01
Li     1  0.2884120000000 -0.3725630000000 -0.0956340000000 1.0  -0.01
Li     1 -0.3840460000000  0.2769290000000 -0.0956340000000 1.0  -0.01
Li     1 -0.1718060000000 -0.1718060000000 -0.3436120000000 1.0  -0.04
Li     1  0.1718060000000  0.1718060000000  0.3436120000000 1.0  -0.04
O      2 -0.6750760000000 -0.4336220000000  0.2960800000000 1.0  -0.25
O      2 -0.0288440000000 -0.2702980000000  0.2960800000000 1.0  -0.25
O      2  0.2702980000000  0.6750760000000 -0.2960800000000 1.0  -0.25
O      2  0.4336220000000  0.0288440000000 -0.2960800000000 1.0  -0.25
S      3  0.1408540000000  0.2426080000000 -0.3575210000000 1.0  -0.26
S      3 -0.4983750000000  0.3998710000000 -0.3575210000000 1.0  -0.26
S      3 -0.3998710000000 -0.1408540000000  0.3575210000000 1.0  -0.26
S      3 -0.2426080000000  0.4983750000000  0.3575210000000 1.0  -0.26
S      3 -0.0421690000000  0.3218920000000  0.0833480000000 1.0  -0.18
S      3  0.1255160000000 -0.2385440000000  0.0833480000000 1.0  -0.18
S      3  0.2385440000000  0.0421690000000 -0.0833480000000 1.0  -0.18
S      3 -0.3218920000000 -0.1255160000000 -0.0833480000000 1.0  -0.18
Fe     4  0.4042980000000 -0.1746580000000  0.4093230000000 1.0  -3.18
Fe     4  0.0050250000000  0.5839810000000  0.4093230000000 1.0  -3.18
Fe     4 -0.5839810000000 -0.4042980000000 -0.4093230000000 1.0  -3.18
Fe     4  0.1746580000000 -0.0050250000000 -0.4093230000000 1.0  -3.18
Fe     4  0.0937020000000 -0.4062980000000  0.1874050000000 1.0  -2.13
Fe     4  0.4062980000000 -0.0937020000000 -0.1874050000000 1.0  -2.13
END
