TITL LFSO-Li3Fe3S4O2-200929-223651-1695e5 0.0068 435.098331 -1.05650684E+004 -17.5525 18.1732 24 (P21/c) n - 1
REM
REM Run started: Wed, 30 Sep 2020 06:40:55 +0100 in /lustre/scratch/uccabz1/launch_tmp/launcher_2020-09-29-21-36-49-949429
REM CASTEP 20.1 from code version af48c487+ pr-geom-scf-spinfix Tue Jun 2 15:39:59 2020 +0100
REM Functional Perdew Burke Ernzerhof Relativity Koelling-Harmon Dispersion off
REM Cut-off 340.0000 eV Grid scale 1.7500 Gmax 16.5316 1/A FBSC none
REM MP grid 3 3 2 Offset 0.000 0.000 0.000 No. kpts 5 Spacing 0.07
REM Total runtime: 30731.4 s
REM Overall efficiency: 78.1818 %
REM
REM
REM
REM compiler GCC version 4.9.2
REM options -cpp -iprefix /lustre/shared/ucl/apps/gcc/4.9.2/bin/../lib/gcc/x86_64-unknown-linux-gnu/4.9.2/ -mtune=corei7 -march=x86-64 -g -Og
REM COMMAND_LINE
REM seed 1284086665 806537918 -476959514 -1445544547 1352156350 1192749691 900408455 2072619027 -1273268895 680297272 2112642031 755954041
REM
REM S 3|1.8|5|6|7|30:31:32(qc=5)
REM O 2|1.5|12|13|15|20:21(qc=5)
REM Li 1|1.3|8|9|10|10U:20(qc=5)
REM Fe 3|2.2|2.0|1.0|8|9|10|40:41:32(qc=5)
REM 
CELL 1.54180    5.92023    7.06939   11.42661   90.00000   90.00000  114.52116
LATT -1
SFAC Li O  S  Fe 
Li     1  0.3474410000000  0.5780110000000 -0.2718600000000 1.0  -0.04
Li     1  0.1525590000000 -0.5780110000000  0.2281400000000 1.0  -0.04
Li     1 -0.3474410000000 -0.5780110000000  0.2718600000000 1.0  -0.04
Li     1 -0.1525590000000  0.5780110000000 -0.2281400000000 1.0  -0.04
Li     1  0.5000000000000 -0.5000000000000 -0.0000000000000 1.0   0.05
Li     1 -0.0000000000000 -0.5000000000000  0.5000000000000 1.0   0.05
O      2  0.4899180000000 -0.4529300000000  0.1617730000000 1.0  -0.30
O      2  0.0100820000000  0.4529300000000 -0.3382270000000 1.0  -0.30
O      2 -0.4899180000000  0.4529300000000 -0.1617730000000 1.0  -0.30
O      2 -0.0100820000000 -0.4529300000000  0.3382270000000 1.0  -0.30
S      3 -0.2413150000000  0.1415810000000  0.1469150000000 1.0  -0.13
S      3 -0.2586850000000 -0.1415810000000 -0.3530850000000 1.0  -0.13
S      3  0.2413150000000 -0.1415810000000 -0.1469150000000 1.0  -0.13
S      3  0.2586850000000  0.1415810000000  0.3530850000000 1.0  -0.13
S      3  0.6863040000000 -0.1953440000000  0.3784290000000 1.0  -0.09
S      3 -0.1863040000000  0.1953440000000 -0.1215710000000 1.0  -0.09
S      3 -0.6863040000000  0.1953440000000 -0.3784290000000 1.0  -0.09
S      3  0.1863040000000 -0.1953440000000  0.1215710000000 1.0  -0.09
Fe     4  0.5512800000000 -0.1895170000000  0.1914920000000 1.0  -2.67
Fe     4 -0.0512800000000  0.1895170000000 -0.3085080000000 1.0  -2.67
Fe     4 -0.5512800000000  0.1895170000000 -0.1914920000000 1.0  -2.67
Fe     4  0.0512800000000 -0.1895170000000  0.3085080000000 1.0  -2.67
Fe     4 -0.5000000000000  0.0000000000000 -0.0000000000000 1.0  -2.38
Fe     4 -0.0000000000000  0.0000000000000  0.5000000000000 1.0  -2.38
END
