TITL LFSO-LiFe3SO4-200909-021442-a12607 0.0267 212.839586 -9.69434539E+003 8.71355 19.2031 18 (Cmc21) n - 1
REM
REM Run started: Wed, 09 Sep 2020 15:12:09 +0100 in /lustre/scratch/uccabz1/launch_tmp/launcher_2020-09-09-01-14-40-784738
REM CASTEP 20.1 from code version af48c487+ pr-geom-scf-spinfix Tue Jun 2 15:39:59 2020 +0100
REM Functional Perdew Burke Ernzerhof Relativity Koelling-Harmon Dispersion off
REM Cut-off 340.0000 eV Grid scale 1.7500 Gmax 16.5316 1/A FBSC none
REM MP grid 3 3 4 Offset 0.000 0.000 0.000 No. kpts 12 Spacing 0.07
REM Total runtime: 47146.4 s
REM Overall efficiency: 98.0909 %
REM
REM
REM
REM compiler GCC version 4.9.2
REM options -cpp -iprefix /lustre/shared/ucl/apps/gcc/4.9.2/bin/../lib/gcc/x86_64-unknown-linux-gnu/4.9.2/ -mtune=corei7 -march=x86-64 -g -Og
REM COMMAND_LINE
REM seed 1562995187 1051324631 1252049640 196554649 -483643732 1995568163 1924331606 1393841369 -1253894179 1322407429 -364002395 -1718961922
REM
REM S 3|1.8|5|6|7|30:31:32(qc=5)
REM O 2|1.5|12|13|15|20:21(qc=5)
REM Li 1|1.3|8|9|10|10U:20(qc=5)
REM Fe 3|2.2|2.0|1.0|8|9|10|40:41:32(qc=5)
REM 
CELL 1.54180    7.34678    6.84106    5.60600   90.00000  130.93938   90.00000
LATT -1
SFAC Li O  S  Fe 
Li     1  0.2074560000000 -0.0853190000000  0.0000000000000 1.0  -0.02
Li     1 -0.2074560000000  0.4146810000000  0.0000000000000 1.0  -0.02
O      2 -0.1123220000000 -0.3565040000000  0.3156090000000 1.0   0.06
O      2  0.1123220000000  0.1434960000000 -0.3156090000000 1.0   0.06
O      2 -0.5720690000000  0.1434960000000  0.3156090000000 1.0   0.06
O      2  0.5720690000000 -0.3565040000000 -0.3156090000000 1.0   0.06
O      2  0.1499730000000 -0.1208480000000  0.3107900000000 1.0   0.14
O      2 -0.1499730000000  0.3791520000000 -0.3107900000000 1.0   0.14
O      2  0.1608170000000  0.3791520000000  0.3107900000000 1.0   0.14
O      2 -0.1608170000000 -0.1208480000000 -0.3107900000000 1.0   0.14
S      3 -0.3546850000000  0.0793620000000  0.0000000000000 1.0   0.06
S      3  0.3546850000000  0.5793620000000  0.0000000000000 1.0   0.06
Fe     4  0.2707580000000  0.1287160000000  0.5265040000000 1.0   3.25
Fe     4 -0.2707580000000 -0.3712840000000 -0.5265040000000 1.0   3.25
Fe     4  0.2557450000000 -0.3712840000000  0.5265040000000 1.0   3.25
Fe     4 -0.2557450000000  0.1287160000000 -0.5265040000000 1.0   3.25
Fe     4 -0.1760580000000 -0.1929610000000  0.0000000000000 1.0  -2.57
Fe     4  0.1760580000000  0.3070390000000  0.0000000000000 1.0  -2.57
END
