TITL LFSO-Li3Fe3S4O2-200929-202430-d1ae95 0.0057 209.757622 -5.28067053E+003 7.67248 8.00957 12 (P2) n - 1
REM
REM Run started: Wed, 30 Sep 2020 00:14:37 +0100 in /lustre/scratch/uccabz1/launch_tmp/launcher_2020-09-29-19-24-28-825960
REM CASTEP 20.1 from code version af48c487+ pr-geom-scf-spinfix Tue Jun 2 15:39:59 2020 +0100
REM Functional Perdew Burke Ernzerhof Relativity Koelling-Harmon Dispersion off
REM Cut-off 340.0000 eV Grid scale 1.7500 Gmax 16.5316 1/A FBSC none
REM MP grid 5 2 5 Offset 0.000 0.000 0.000 No. kpts 13 Spacing 0.07
REM Total runtime: 17376.3 s
REM Overall efficiency: 86.125 %
REM
REM
REM
REM compiler GCC version 4.9.2
REM options -cpp -iprefix /lustre/shared/ucl/apps/gcc/4.9.2/bin/../lib/gcc/x86_64-unknown-linux-gnu/4.9.2/ -mtune=corei7 -march=x86-64 -g -Og
REM COMMAND_LINE
REM seed 422458481 1787892932 -769388683 1893797522 1263213685 1199902249 2000920383 -1957106100 926297372 -1458187514 845244911 627188615
REM
REM S 3|1.8|5|6|7|30:31:32(qc=5)
REM O 2|1.5|12|13|15|20:21(qc=5)
REM Li 1|1.3|8|9|10|10U:20(qc=5)
REM Fe 3|2.2|2.0|1.0|8|9|10|40:41:32(qc=5)
REM 
CELL 1.54180    6.96498    9.10587    7.07995   90.00000  152.15127   90.00000
LATT -1
SFAC Li O  S  Fe 
Li     1 -0.1869980000000  0.1172350000000 -0.3831300000000 1.0   0.04
Li     1  0.1869980000000  0.1172350000000  0.3831300000000 1.0   0.04
Li     1  0.0000000000000 -0.2495410000000  0.0000000000000 1.0   0.01
O      2  0.2929030000000  0.2179560000000  0.1305030000000 1.0   0.36
O      2 -0.2929030000000  0.2179560000000 -0.1305030000000 1.0   0.36
S      3 -0.6012180000000 -0.1361540000000 -0.3496200000000 1.0   0.06
S      3  0.6012180000000 -0.1361540000000  0.3496200000000 1.0   0.06
S      3  0.1053340000000  0.5246860000000 -0.1516090000000 1.0   0.09
S      3 -0.1053340000000  0.5246860000000  0.1516090000000 1.0   0.09
Fe     4 -0.3218430000000 -0.3444500000000  0.2995020000000 1.0   1.92
Fe     4  0.3218430000000 -0.3444500000000 -0.2995020000000 1.0   1.92
Fe     4  0.0000000000000  0.3450470000000  0.0000000000000 1.0   2.74
END
