TITL LFSO-Li4Fe2S3O-200911-014850-29f5b2 -0.0748 159.340276 -3.87488027E+003 5.64902 5.97614 10 (C2/m) n - 1
REM
REM Run started: Fri, 11 Sep 2020 02:53:22 +0100 in /lustre/scratch/uccabz1/launch_tmp/launcher_2020-09-11-00-48-48-435505
REM CASTEP 20.1 from code version af48c487+ pr-geom-scf-spinfix Tue Jun 2 15:39:59 2020 +0100
REM Functional Perdew Burke Ernzerhof Relativity Koelling-Harmon Dispersion off
REM Cut-off 340.0000 eV Grid scale 1.7500 Gmax 16.5316 1/A FBSC none
REM MP grid 5 3 3 Offset 0.000 0.000 0.000 No. kpts 16 Spacing 0.07
REM Total runtime: 4838.69 s
REM Overall efficiency: 95.8333 %
REM
REM
REM
REM compiler GCC version 4.9.2
REM options -cpp -iprefix /lustre/shared/ucl/apps/gcc/4.9.2/bin/../lib/gcc/x86_64-unknown-linux-gnu/4.9.2/ -mtune=corei7 -march=x86-64 -g -Og
REM COMMAND_LINE
REM seed -1496902158 1518500643 -449844599 1246906166 1540818802 259409911 -190489728 1809591086 -1726785524 1403007636 2057612199 -381664626
REM
REM S 3|1.8|5|6|7|30:31:32(qc=5)
REM O 2|1.5|12|13|15|20:21(qc=5)
REM Li 1|1.3|8|9|10|10U:20(qc=5)
REM Fe 3|2.2|2.0|1.0|8|9|10|40:41:32(qc=5)
REM 
CELL 1.54180    3.21931    7.81660    7.62063  120.85439  102.46157   90.00000
LATT -1
SFAC Li O  S  Fe 
Li     1 -0.5854870000000 -0.3225880000000 -0.2859300000000 1.0  -0.04
Li     1  0.5854870000000 -0.0366580000000  0.2859300000000 1.0  -0.04
Li     1  0.5854870000000  0.3225880000000  0.2859300000000 1.0  -0.04
Li     1 -0.5854870000000  0.0366580000000 -0.2859300000000 1.0  -0.04
O      2 -0.5000000000000 -0.5000000000000  0.0000000000000 1.0   0.22
S      3 -0.2800110000000 -0.2732040000000 -0.5464080000000 1.0   0.02
S      3  0.2800110000000  0.2732040000000  0.5464080000000 1.0   0.02
S      3  0.5000000000000  0.0000000000000  0.0000000000000 1.0   0.01
Fe     4 -0.0894480000000  0.4026290000000 -0.1947420000000 1.0   2.76
Fe     4  0.0894480000000 -0.4026290000000  0.1947420000000 1.0   2.76
END
