TITL LFSO-Li4Fe2S4O-200910-184900-22a728 -0.0532 244.491307 -4.17881120E+003 -7.95949 8.11627 11 (R3m) n - 1
REM
REM Run started: Thu, 10 Sep 2020 20:46:04 +0100 in /lustre/scratch/uccabz1/launch_tmp/launcher_2020-09-10-17-48-58-621825
REM CASTEP 20.1 from code version af48c487+ pr-geom-scf-spinfix Tue Jun 2 15:39:59 2020 +0100
REM Functional Perdew Burke Ernzerhof Relativity Koelling-Harmon Dispersion off
REM Cut-off 340.0000 eV Grid scale 1.7500 Gmax 16.5316 1/A FBSC none
REM MP grid 3 3 3 Offset 0.000 0.000 0.000 No. kpts 6 Spacing 0.07
REM Total runtime: 7105.54 s
REM Overall efficiency: 96 %
REM
REM
REM
REM compiler GCC version 4.9.2
REM options -cpp -iprefix /lustre/shared/ucl/apps/gcc/4.9.2/bin/../lib/gcc/x86_64-unknown-linux-gnu/4.9.2/ -mtune=corei7 -march=x86-64 -g -Og
REM COMMAND_LINE
REM seed -1693575539 943293486 -439693203 1518878644 -427075518 2037113529 1676598328 1551766493 804032154 1725135753 -777310388 -1368401288
REM
REM S 3|1.8|5|6|7|30:31:32(qc=5)
REM O 2|1.5|12|13|15|20:21(qc=5)
REM Li 1|1.3|8|9|10|10U:20(qc=5)
REM Fe 3|2.2|2.0|1.0|8|9|10|40:41:32(qc=5)
REM 
CELL 1.54180    6.95865    6.95865    7.08040   60.56714   60.56714   60.00000
LATT -1
SFAC Li O  S  Fe 
Li     1 -0.1780300000000  0.3921630000000 -0.0319010000000 1.0  -0.00
Li     1  0.3921630000000 -0.1822320000000 -0.0319010000000 1.0  -0.00
Li     1 -0.1822320000000 -0.1780300000000 -0.0319010000000 1.0  -0.00
Li     1 -0.1420550000000 -0.1420550000000  0.4261660000000 1.0  -0.06
O      2 -0.3747670000000 -0.3747670000000  0.1243020000000 1.0  -0.33
S      3  0.1263100000000 -0.3890920000000 -0.3413590000000 1.0  -0.24
S      3 -0.3890920000000 -0.3958580000000 -0.3413590000000 1.0  -0.24
S      3 -0.3958580000000  0.1263100000000 -0.3413590000000 1.0  -0.24
S      3 -0.0126790000000 -0.0126790000000  0.0380360000000 1.0  -0.20
Fe     4  0.3867090000000  0.3867090000000 -0.1601260000000 1.0  -3.26
Fe     4 -0.4771830000000 -0.4771830000000  0.4315470000000 1.0  -3.39
END
