TITL LFSO-Li3FeSO2-200911-154317-0e7324 -0.0161 108.533322 -2.64014355E+003 3.06145 3.29929 7 (R3) n - 1
REM
REM Run started: Fri, 11 Sep 2020 17:33:14 +0100 in /lustre/scratch/uccabz1/launch_tmp/launcher_2020-09-11-14-43-16-128503
REM CASTEP 20.1 from code version af48c487+ pr-geom-scf-spinfix Tue Jun 2 15:39:59 2020 +0100
REM Functional Perdew Burke Ernzerhof Relativity Koelling-Harmon Dispersion off
REM Cut-off 340.0000 eV Grid scale 1.7500 Gmax 16.5316 1/A FBSC none
REM MP grid 4 4 5 Offset 0.000 0.000 0.000 No. kpts 40 Spacing 0.07
REM Total runtime: 6653.91 s
REM Overall efficiency: 93.75 %
REM
REM
REM
REM compiler GCC version 4.9.2
REM options -cpp -iprefix /lustre/shared/ucl/apps/gcc/4.9.2/bin/../lib/gcc/x86_64-unknown-linux-gnu/4.9.2/ -mtune=corei7 -march=x86-64 -g -Og
REM COMMAND_LINE
REM seed 824318315 -385017185 521717074 258641525 -101565688 -1848078950 -231757584 1936761234 -1942353966 407004543 -1190237224 1663782457
REM
REM S 3|1.8|5|6|7|30:31:32(qc=5)
REM O 2|1.5|12|13|15|20:21(qc=5)
REM Li 1|1.3|8|9|10|10U:20(qc=5)
REM Fe 3|2.2|2.0|1.0|8|9|10|40:41:32(qc=5)
REM 
CELL 1.54180    6.27156    6.27156    4.82318   49.44734   49.44734   60.00000
LATT -1
SFAC Li O  S  Fe 
Li     1 -0.2440610000000  0.1792870000000 -0.2512800000000 1.0  -0.06
Li     1  0.1792870000000  0.3160530000000 -0.2512800000000 1.0  -0.06
Li     1  0.3160530000000 -0.2440610000000 -0.2512800000000 1.0  -0.06
O      2  0.4622100000000  0.4622100000000 -0.3866300000000 1.0   0.04
O      2  0.0477350000000  0.0477350000000 -0.1432050000000 1.0   0.16
S      3 -0.3601420000000 -0.3601420000000  0.0804270000000 1.0   0.18
Fe     4 -0.1381790000000 -0.1381790000000 -0.5854630000000 1.0   2.87
END
