TITL LFSO-Li2Fe4S4O-200911-225246-b20964 -0.0473 377.748871 -1.10123438E+004 5.47171 11.4383 22 (P2) n - 1
REM
REM Run started: Sun, 13 Sep 2020 13:11:53 +0100 in /lustre/scratch/uccabz1/launch_tmp/launcher_2020-09-11-21-52-43-308676
REM CASTEP 20.1 from code version af48c487+ pr-geom-scf-spinfix Tue Jun 2 15:39:59 2020 +0100
REM Functional Perdew Burke Ernzerhof Relativity Koelling-Harmon Dispersion off
REM Cut-off 340.0000 eV Grid scale 1.7500 Gmax 16.5316 1/A FBSC none
REM MP grid 4 3 1 Offset 0.000 0.000 0.000 No. kpts 6 Spacing 0.07
REM Total runtime: 139102 s
REM Overall efficiency: 98.5 %
REM
REM
REM
REM compiler GCC version 4.9.2
REM options -cpp -iprefix /lustre/shared/ucl/apps/gcc/4.9.2/bin/../lib/gcc/x86_64-unknown-linux-gnu/4.9.2/ -mtune=corei7 -march=x86-64 -g -Og
REM COMMAND_LINE
REM seed 486905568 688164419 -111711935 1940965071 -188597358 -2141940781 126631842 646145305 -690988771 -993209464 1932327952 -147933738
REM
REM S 3|1.8|5|6|7|30:31:32(qc=5)
REM O 2|1.5|12|13|15|20:21(qc=5)
REM Li 1|1.3|8|9|10|10U:20(qc=5)
REM Fe 3|2.2|2.0|1.0|8|9|10|40:41:32(qc=5)
REM 
CELL 1.54180    4.09329    6.32729   15.08835   90.00000   90.00000  104.83798
LATT -1
SFAC Li O  S  Fe 
Li     1 -0.1734800000000  0.2872560000000 -0.4685550000000 1.0   0.03
Li     1  0.1734800000000 -0.2872560000000 -0.4685550000000 1.0   0.03
Li     1 -0.1254300000000 -0.2623320000000 -0.0450620000000 1.0  -0.01
Li     1  0.1254300000000  0.2623320000000 -0.0450620000000 1.0  -0.01
O      2  0.2277620000000 -0.2433280000000  0.0330660000000 1.0  -0.04
O      2 -0.2277620000000  0.2433280000000  0.0330660000000 1.0  -0.04
S      3 -0.3679130000000 -0.3177920000000 -0.3681080000000 1.0   0.02
S      3  0.3679130000000  0.3177920000000 -0.3681080000000 1.0   0.02
S      3  0.1652360000000 -0.2124590000000 -0.1911590000000 1.0  -0.01
S      3 -0.1652360000000  0.2124590000000 -0.1911590000000 1.0  -0.01
S      3  0.3072300000000 -0.2354410000000  0.2455790000000 1.0   0.01
S      3 -0.3072300000000  0.2354410000000  0.2455790000000 1.0   0.01
S      3 -0.3030480000000 -0.3538120000000  0.4132500000000 1.0   0.05
S      3  0.3030480000000  0.3538120000000  0.4132500000000 1.0   0.05
Fe     4  0.4621270000000 -0.3337980000000  0.1184720000000 1.0  -1.31
Fe     4 -0.4621270000000  0.3337980000000  0.1184720000000 1.0  -1.31
Fe     4 -0.2989110000000 -0.1291070000000 -0.2434300000000 1.0   1.87
Fe     4  0.2989110000000  0.1291070000000 -0.2434300000000 1.0   1.87
Fe     4  0.2269350000000  0.3854230000000  0.2640560000000 1.0   1.95
Fe     4 -0.2269350000000 -0.3854230000000  0.2640560000000 1.0   1.95
Fe     4  0.0169120000000 -0.1598690000000  0.1269910000000 1.0   0.19
Fe     4 -0.0169120000000  0.1598690000000  0.1269910000000 1.0   0.19
END
