TITL LFSO-Li4Fe2SO4-200910-144105-154ebf 0.5512 330.350345 -9.16025987E+003 -11.7795 12.3686 22 (P3) n - 1
REM
REM Run started: Fri, 11 Sep 2020 07:46:26 +0100 in /lustre/scratch/uccabz1/launch_tmp/launcher_2020-09-10-13-41-03-187182
REM CASTEP 20.1 from code version af48c487+ pr-geom-scf-spinfix Tue Jun 2 15:39:59 2020 +0100
REM Functional Perdew Burke Ernzerhof Relativity Koelling-Harmon Dispersion off
REM Cut-off 340.0000 eV Grid scale 1.7500 Gmax 16.5316 1/A FBSC none
REM MP grid 3 3 2 Offset 0.000 0.000 0.000 No. kpts 5 Spacing 0.07
REM Total runtime: 67065.8 s
REM Overall efficiency: 72.3333 %
REM
REM
REM
REM compiler GCC version 4.9.2
REM options -cpp -iprefix /lustre/shared/ucl/apps/gcc/4.9.2/bin/../lib/gcc/x86_64-unknown-linux-gnu/4.9.2/ -mtune=corei7 -march=x86-64 -g -Og
REM COMMAND_LINE
REM seed -1925890737 -144575244 -1860337093 1283689309 -1507638824 -2029284082 -776321659 766208212 1133164505 1674170279 26224330 1637819969
REM
REM S 3|1.8|5|6|7|30:31:32(qc=5)
REM O 2|1.5|12|13|15|20:21(qc=5)
REM Li 1|1.3|8|9|10|10U:20(qc=5)
REM Fe 3|2.2|2.0|1.0|8|9|10|40:41:32(qc=5)
REM 
CELL 1.54180    5.74517    5.74517   11.55680   90.00000   90.00000  120.00000
LATT -1
SFAC Li O  S  Fe 
Li     1 -0.1496420000000 -0.3196100000000 -0.1644430000000 1.0   0.02
Li     1 -0.1699680000000  0.1496420000000 -0.1644430000000 1.0   0.02
Li     1  0.3196100000000  0.1699680000000 -0.1644430000000 1.0   0.02
Li     1 -0.1934140000000 -0.3539750000000  0.3343030000000 1.0  -0.32
Li     1 -0.1605610000000  0.1934140000000  0.3343030000000 1.0  -0.32
Li     1  0.3539750000000  0.1605610000000  0.3343030000000 1.0  -0.32
Li     1  0.3333330000000 -0.3333330000000  0.2526110000000 1.0   0.01
Li     1  0.3333330000000 -0.3333330000000 -0.0130380000000 1.0  -0.04
O      2  0.5284440000000  0.0511340000000  0.2127480000000 1.0  -0.00
O      2 -0.4773100000000 -0.5284440000000  0.2127480000000 1.0  -0.00
O      2 -0.0511340000000  0.4773100000000  0.2127480000000 1.0  -0.00
O      2 -0.3657620000000 -0.1946780000000 -0.1203990000000 1.0  -0.12
O      2  0.1710840000000  0.3657620000000 -0.1203990000000 1.0  -0.12
O      2  0.1946780000000 -0.1710840000000 -0.1203990000000 1.0  -0.12
O      2  0.3333330000000 -0.3333330000000 -0.4692210000000 1.0  -0.12
O      2 -0.3333330000000  0.3333330000000 -0.2766400000000 1.0  -0.04
S      3 -0.3333330000000  0.3333330000000  0.1498210000000 1.0  -0.01
S      3 -0.3333330000000  0.3333330000000  0.4782330000000 1.0  -0.10
Fe     4  0.4909140000000 -0.0176570000000 -0.3749720000000 1.0  -2.77
Fe     4 -0.5085710000000 -0.4909140000000 -0.3749720000000 1.0  -2.77
Fe     4  0.0176570000000  0.5085710000000 -0.3749720000000 1.0  -2.77
Fe     4  0.3333330000000 -0.3333330000000 -0.2063700000000 1.0  -1.92
END
