TITL LFSO-Li2Fe4S4O-200911-212605-863a85 -0.0169 157.694915 -5.50457398E+003 0.189772E-01 0.222058E-01 11 (Fmmm) n - 1
REM
REM Run started: Sat, 12 Sep 2020 00:14:56 +0100 in /lustre/scratch/uccabz1/launch_tmp/launcher_2020-09-11-20-26-03-365012
REM CASTEP 20.1 from code version af48c487+ pr-geom-scf-spinfix Tue Jun 2 15:39:59 2020 +0100
REM Functional Perdew Burke Ernzerhof Relativity Koelling-Harmon Dispersion off
REM Cut-off 340.0000 eV Grid scale 1.7500 Gmax 16.5316 1/A FBSC none
REM MP grid 4 4 2 Offset 0.000 0.000 0.000 No. kpts 10 Spacing 0.07
REM Total runtime: 10558.1 s
REM Overall efficiency: 85.5556 %
REM
REM
REM
REM compiler GCC version 4.9.2
REM options -cpp -iprefix /lustre/shared/ucl/apps/gcc/4.9.2/bin/../lib/gcc/x86_64-unknown-linux-gnu/4.9.2/ -mtune=corei7 -march=x86-64 -g -Og
REM COMMAND_LINE
REM seed 1453243767 292818163 127706054 1402332466 -556754040 -61241612 -396543200 -514365136 289193010 1297865670 2123057933 -980017860
REM
REM S 3|1.8|5|6|7|30:31:32(qc=5)
REM O 2|1.5|12|13|15|20:21(qc=5)
REM Li 1|1.3|8|9|10|10U:20(qc=5)
REM Fe 3|2.2|2.0|1.0|8|9|10|40:41:32(qc=5)
REM 
CELL 1.54180    4.27778    4.27778    9.12444  102.15845  102.15845   95.82681
LATT -1
SFAC Li O  S  Fe 
Li     1 -0.2289520000000  0.2289520000000  0.0000000000000 1.0
Li     1  0.2289520000000 -0.2289520000000  0.0000000000000 1.0
O      2  0.5000000000000  0.5000000000000  0.0000000000000 1.0
S      3  0.9246910000000  0.3705130000000  0.2952040000000 1.0
S      3  0.6294870000000  0.0753090000000 -0.2952040000000 1.0
S      3 -0.9246910000000 -0.3705130000000 -0.2952040000000 1.0
S      3 -0.6294870000000 -0.0753090000000  0.2952040000000 1.0
Fe     4 -0.4702330000000 -0.4702330000000 -0.3758130000000 1.0
Fe     4  0.4702330000000  0.4702330000000  0.3758130000000 1.0
Fe     4 -0.0944200000000 -0.0944200000000  0.3758130000000 1.0
Fe     4  0.0944200000000  0.0944200000000 -0.3758130000000 1.0
END
