TITL LFSO-Li4Fe3S4O-200926-070926-6b1118 -0.0196 462.023079 -1.00825863E+004 21.7909 22.3856 24 (R3) n - 1
REM
REM Run started: Sun, 27 Sep 2020 00:39:47 +0100 in /lustre/scratch/uccabz1/launch_tmp/launcher_2020-09-26-06-09-24-038102
REM CASTEP 20.1 from code version af48c487+ pr-geom-scf-spinfix Tue Jun 2 15:39:59 2020 +0100
REM Functional Perdew Burke Ernzerhof Relativity Koelling-Harmon Dispersion off
REM Cut-off 340.0000 eV Grid scale 1.7500 Gmax 16.5316 1/A FBSC none
REM MP grid 3 3 2 Offset 0.000 0.000 0.000 No. kpts 7 Spacing 0.07
REM Total runtime: 78433 s
REM Overall efficiency: 94.75 %
REM
REM
REM
REM compiler GCC version 4.9.2
REM options -cpp -iprefix /lustre/shared/ucl/apps/gcc/4.9.2/bin/../lib/gcc/x86_64-unknown-linux-gnu/4.9.2/ -mtune=corei7 -march=x86-64 -g -Og
REM COMMAND_LINE
REM seed 557649960 -1046561815 -865499278 -553103320 -2111270813 -1130750229 -2017896584 -35211603 -1831130333 -337298952 468400835 1025384940
REM
REM S 3|1.8|5|6|7|30:31:32(qc=5)
REM O 2|1.5|12|13|15|20:21(qc=5)
REM Li 1|1.3|8|9|10|10U:20(qc=5)
REM Fe 3|2.2|2.0|1.0|8|9|10|40:41:32(qc=5)
REM 
CELL 1.54180    8.61651    8.61651    8.73972   60.46529   60.46529   60.00000
LATT -1
SFAC Li O  S  Fe 
Li     1 -0.4248690000000 -0.0836050000000  0.1098310000000 1.0  -0.02
Li     1 -0.0836050000000  0.3986440000000  0.1098310000000 1.0  -0.02
Li     1  0.3986440000000 -0.4248690000000  0.1098310000000 1.0  -0.02
Li     1  0.1714140000000  0.0431800000000  0.3691180000000 1.0  -0.01
Li     1  0.0431800000000 -0.5837120000000  0.3691180000000 1.0  -0.01
Li     1 -0.5837120000000  0.1714140000000  0.3691180000000 1.0  -0.01
Li     1  0.4719760000000  0.4719760000000 -0.4159270000000 1.0   0.03
Li     1  0.3299320000000  0.3299320000000  0.0102040000000 1.0   0.01
O      2  0.2473710000000  0.2473710000000  0.2578870000000 1.0   0.03
O      2 -0.2056330000000 -0.2056330000000  0.6168990000000 1.0   0.23
S      3 -0.3444130000000  0.3090050000000  0.2089680000000 1.0   0.31
S      3  0.3090050000000 -0.1735590000000  0.2089680000000 1.0   0.31
S      3 -0.1735590000000 -0.3444130000000  0.2089680000000 1.0   0.31
S      3 -0.3543260000000  0.1959590000000 -0.1910250000000 1.0   0.19
S      3  0.1959590000000  0.3493920000000 -0.1910250000000 1.0   0.19
S      3  0.3493920000000 -0.3543260000000 -0.1910250000000 1.0   0.19
S      3  0.0315350000000  0.0315350000000 -0.0946060000000 1.0   0.26
S      3  0.1292000000000  0.1292000000000 -0.3876010000000 1.0   0.19
Fe     4  0.0056370000000 -0.2442260000000 -0.0806740000000 1.0   3.48
Fe     4 -0.2442260000000  0.3192630000000 -0.0806740000000 1.0   3.48
Fe     4  0.3192630000000  0.0056370000000 -0.0806740000000 1.0   3.48
Fe     4 -0.4375600000000 -0.2422080000000 -0.2612070000000 1.0   3.08
Fe     4 -0.2422080000000 -0.0590250000000 -0.2612070000000 1.0   3.08
Fe     4 -0.0590250000000 -0.4375600000000 -0.2612070000000 1.0   3.08
END
