TITL LFSO-Li3Fe3S2O4-200929-043328-d4bf89 0.0653 474.874665 -1.10991880E+004 18.6994 19.2751 24 (R3) n - 1
REM
REM Run started: Wed, 30 Sep 2020 07:22:16 +0100 in /lustre/scratch/uccabz1/launch_tmp/launcher_2020-09-30-04-40-24-187922
REM CASTEP 20.1 from code version af48c487+ pr-geom-scf-spinfix Tue Jun 2 15:39:59 2020 +0100
REM Functional Perdew Burke Ernzerhof Relativity Koelling-Harmon Dispersion off
REM Cut-off 340.0000 eV Grid scale 1.7500 Gmax 16.5316 1/A FBSC none
REM MP grid 3 3 2 Offset 0.000 0.000 0.000 No. kpts 7 Spacing 0.07
REM Total runtime: 67722.8 s
REM Overall efficiency: 76 %
REM
REM
REM
REM compiler GCC version 4.9.2
REM options -cpp -iprefix /lustre/shared/ucl/apps/gcc/4.9.2/bin/../lib/gcc/x86_64-unknown-linux-gnu/4.9.2/ -mtune=corei7 -march=x86-64 -g -Og
REM COMMAND_LINE
REM seed 1620607953 828813748 -141988764 -1118267447 -335972713 57344039 -1008225169 -897727001 -524923757 888962858 1936478893 -1179097234
REM
REM S 3|1.8|5|6|7|30:31:32(qc=5)
REM O 2|1.5|12|13|15|20:21(qc=5)
REM Li 1|1.3|8|9|10|10U:20(qc=5)
REM Fe 3|2.2|2.0|1.0|8|9|10|40:41:32(qc=5)
REM 
CELL 1.54180    8.33365    8.33365    9.24600   63.21380   63.21380   60.00000
LATT -1
SFAC Li O  S  Fe 
Li     1 -0.5037240000000  0.1745770000000 -0.1405790000000 1.0   0.01
Li     1 -0.5302740000000 -0.5037240000000 -0.1405790000000 1.0   0.01
Li     1  0.1745770000000 -0.5302740000000 -0.1405790000000 1.0   0.01
Li     1  0.2108290000000 -0.0929610000000 -0.4049010000000 1.0   0.03
Li     1  0.2870330000000  0.2108290000000 -0.4049010000000 1.0   0.03
Li     1 -0.0929610000000  0.2870330000000 -0.4049010000000 1.0   0.03
O      2  0.3551050000000 -0.0336100000000  0.0582100000000 1.0   0.23
O      2 -0.3797050000000  0.3551050000000  0.0582100000000 1.0   0.23
O      2 -0.0336100000000 -0.3797050000000  0.0582100000000 1.0   0.23
O      2  0.2452360000000 -0.3114740000000 -0.2239460000000 1.0   0.25
O      2  0.2901840000000  0.2452360000000 -0.2239460000000 1.0   0.25
O      2 -0.3114740000000  0.2901840000000 -0.2239460000000 1.0   0.25
O      2  0.0706140000000  0.0706140000000 -0.2118420000000 1.0   0.11
O      2  0.3163180000000  0.3163180000000  0.0510450000000 1.0   0.24
S      3 -0.5205230000000  0.0119580000000  0.3825570000000 1.0   0.17
S      3  0.1260070000000 -0.5205230000000  0.3825570000000 1.0   0.17
S      3  0.0119580000000  0.1260070000000  0.3825570000000 1.0   0.17
S      3 -0.0440920000000 -0.0440920000000  0.1322750000000 1.0   0.07
Fe     4  0.1983490000000  0.0623780000000 -0.0672340000000 1.0   2.71
Fe     4 -0.1934930000000  0.1983490000000 -0.0672340000000 1.0   2.71
Fe     4  0.0623780000000 -0.1934930000000 -0.0672340000000 1.0   2.71
Fe     4  0.3167960000000  0.0640220000000  0.2166940000000 1.0   2.69
Fe     4  0.4024880000000  0.3167960000000  0.2166940000000 1.0   2.69
Fe     4  0.0640220000000  0.4024880000000  0.2166940000000 1.0   2.69
END
