TITL LFSO-Li4Fe2S3O-200911-004258-6997b4 0.0142 402.592298 -7.75263067E+003 11.7927 12.3421 20 (P3) n - 1
REM
REM Run started: Fri, 11 Sep 2020 22:42:59 +0100 in /lustre/scratch/uccabz1/launch_tmp/launcher_2020-09-10-23-42-57-233974
REM CASTEP 20.1 from code version af48c487+ pr-geom-scf-spinfix Tue Jun 2 15:39:59 2020 +0100
REM Functional Perdew Burke Ernzerhof Relativity Koelling-Harmon Dispersion off
REM Cut-off 340.0000 eV Grid scale 1.7500 Gmax 16.5316 1/A FBSC none
REM MP grid 3 3 2 Offset 0.000 0.000 0.000 No. kpts 5 Spacing 0.07
REM Total runtime: 86122.9 s
REM Overall efficiency: 82.4167 %
REM
REM
REM
REM compiler GCC version 4.9.2
REM options -cpp -iprefix /lustre/shared/ucl/apps/gcc/4.9.2/bin/../lib/gcc/x86_64-unknown-linux-gnu/4.9.2/ -mtune=corei7 -march=x86-64 -g -Og
REM COMMAND_LINE
REM seed -559061698 -582289674 -1434823951 68865054 2013337792 1969019908 2075192269 -43916609 -1936433113 -460507796 1900252776 -1148595259
REM
REM S 3|1.8|5|6|7|30:31:32(qc=5)
REM O 2|1.5|12|13|15|20:21(qc=5)
REM Li 1|1.3|8|9|10|10U:20(qc=5)
REM Fe 3|2.2|2.0|1.0|8|9|10|40:41:32(qc=5)
REM 
CELL 1.54180    6.91698    6.91698    9.71632   90.00000   90.00000  120.00000
LATT -1
SFAC Li O  S  Fe 
Li     1  0.0524360000000  0.2729600000000 -0.1909760000000 1.0  -0.02
Li     1 -0.2729600000000  0.7794760000000 -0.1909760000000 1.0  -0.02
Li     1 -0.7794760000000 -0.0524360000000 -0.1909760000000 1.0  -0.02
Li     1 -0.0504440000000 -0.3808670000000 -0.4408170000000 1.0  -0.01
Li     1  0.3808670000000  0.3304230000000 -0.4408170000000 1.0  -0.01
Li     1 -0.3304230000000  0.0504440000000 -0.4408170000000 1.0  -0.01
Li     1  0.0000000000000  0.0000000000000  0.4124920000000 1.0  -0.01
Li     1  0.3333330000000 -0.3333330000000  0.4938830000000 1.0   0.00
O      2  0.0000000000000  0.0000000000000  0.1951770000000 1.0   0.30
O      2  0.0000000000000  0.0000000000000 -0.0877400000000 1.0   0.35
S      3 -0.3293530000000 -0.2940510000000 -0.4343090000000 1.0   0.02
S      3  0.2940510000000 -0.0353020000000 -0.4343090000000 1.0   0.02
S      3  0.0353020000000  0.3293530000000 -0.4343090000000 1.0   0.02
S      3 -0.5183700000000 -0.0133650000000  0.0232420000000 1.0   0.09
S      3  0.0133650000000 -0.5050050000000  0.0232420000000 1.0   0.09
S      3  0.5050050000000  0.5183700000000  0.0232420000000 1.0   0.09
Fe     4  0.2551070000000  0.1388730000000  0.0661510000000 1.0   3.15
Fe     4 -0.1388730000000  0.1162340000000  0.0661510000000 1.0   3.15
Fe     4 -0.1162340000000 -0.2551070000000  0.0661510000000 1.0   3.15
Fe     4 -0.3333330000000  0.3333330000000 -0.0189860000000 1.0   1.49
END
