TITL LFSO-Li2Fe2S2O-200913-115331-387d99 -0.0123 96.618797 -3.17115980E+003 0.351483E-03 0.625262E-03 7 (P2) n - 1
REM
REM Run started: Sun, 13 Sep 2020 13:03:33 +0100 in /lustre/scratch/uccabz1/launch_tmp/launcher_2020-09-13-10-53-28-838983
REM CASTEP 20.1 from code version af48c487+ pr-geom-scf-spinfix Tue Jun 2 15:39:59 2020 +0100
REM Functional Perdew Burke Ernzerhof Relativity Koelling-Harmon Dispersion off
REM Cut-off 340.0000 eV Grid scale 1.7500 Gmax 16.5316 1/A FBSC none
REM MP grid 5 5 2 Offset 0.000 0.000 0.000 No. kpts 15 Spacing 0.07
REM Total runtime: 4224.7 s
REM Overall efficiency: 88.1667 %
REM
REM
REM
REM compiler GCC version 4.9.2
REM options -cpp -iprefix /lustre/shared/ucl/apps/gcc/4.9.2/bin/../lib/gcc/x86_64-unknown-linux-gnu/4.9.2/ -mtune=corei7 -march=x86-64 -g -Og
REM COMMAND_LINE
REM seed -511617011 -1831337150 -1407267508 -234394536 2028529155 2037206393 399671753 -830367833 -1416424824 535392288 -1118267447 1866082685
REM
REM S 3|1.8|5|6|7|30:31:32(qc=5)
REM O 2|1.5|12|13|15|20:21(qc=5)
REM Li 1|1.3|8|9|10|10U:20(qc=5)
REM Fe 3|2.2|2.0|1.0|8|9|10|40:41:32(qc=5)
REM 
CELL 1.54180    3.95352    3.02071    9.64009   90.00000  122.93980   90.00000
LATT -1
SFAC Li O  S  Fe 
Li     1 -0.4336960000000  0.2251790000000  0.3664160000000 1.0
Li     1  0.4336960000000  0.2251790000000 -0.3664160000000 1.0
O      2  0.0000000000000  0.3430980000000  0.0000000000000 1.0
S      3  0.0013900000000 -0.2205730000000  0.3182940000000 1.0
S      3 -0.0013900000000 -0.2205730000000 -0.3182940000000 1.0
Fe     4  0.1917080000000 -0.1594320000000 -0.0593390000000 1.0
Fe     4 -0.1917080000000 -0.1594320000000  0.0593390000000 1.0
END
