TITL LFSO-LiFe3S2O3-200909-173749-61b22e -0.0320 162.660005 -4.71254826E+003 -2.98085 3.44714 9 (R3) n - 1
REM
REM Run started: Wed, 09 Sep 2020 18:18:02 +0100 in /lustre/scratch/uccabz1/launch_tmp/launcher_2020-09-09-16-37-47-741515
REM CASTEP 20.1 from code version af48c487+ pr-geom-scf-spinfix Tue Jun 2 15:39:59 2020 +0100
REM Functional Perdew Burke Ernzerhof Relativity Koelling-Harmon Dispersion off
REM Cut-off 340.0000 eV Grid scale 1.7500 Gmax 16.5316 1/A FBSC none
REM MP grid 4 4 4 Offset 0.000 0.000 0.000 No. kpts 12 Spacing 0.07
REM Total runtime: 3544.54 s
REM Overall efficiency: 95 %
REM
REM
REM
REM compiler GCC version 4.9.2
REM options -cpp -iprefix /lustre/shared/ucl/apps/gcc/4.9.2/bin/../lib/gcc/x86_64-unknown-linux-gnu/4.9.2/ -mtune=corei7 -march=x86-64 -g -Og
REM COMMAND_LINE
REM seed -1187779781 -1817433796 321747526 -2007244737 -256193381 1941064325 136334256 1456485358 1178299197 -311122584 33355143 656428920
REM
REM S 3|1.8|5|6|7|30:31:32(qc=5)
REM O 2|1.5|12|13|15|20:21(qc=5)
REM Li 1|1.3|8|9|10|10U:20(qc=5)
REM Fe 3|2.2|2.0|1.0|8|9|10|40:41:32(qc=5)
REM 
CELL 1.54180    7.24086    7.24086    7.24086   43.41234   43.41234   43.41234
LATT -1
SFAC Li O  S  Fe 
Li     1  0.4312910000000  0.4312910000000  0.4312910000000 1.0  -0.02
O      2  0.4340130000000 -0.1655410000000  0.2532590000000 1.0  -0.11
O      2 -0.1655410000000  0.2532590000000  0.4340130000000 1.0  -0.11
O      2  0.2532590000000  0.4340130000000 -0.1655410000000 1.0  -0.11
S      3 -0.2480320000000 -0.2480320000000 -0.2480320000000 1.0  -0.03
S      3 -0.0666770000000 -0.0666770000000 -0.0666770000000 1.0   0.06
Fe     4 -0.1474830000000 -0.4151770000000  0.0975230000000 1.0  -0.89
Fe     4 -0.4151770000000  0.0975230000000 -0.1474830000000 1.0  -0.89
Fe     4  0.0975230000000 -0.1474830000000 -0.4151770000000 1.0  -0.89
END
