TITL LFSO-Li3FeS2O-200911-180852-ea893d -0.0297 381.899246 -7.52688505E+003 -10.9931 11.5162 21 (Cm) n - 1
REM
REM Run started: Sat, 12 Sep 2020 11:50:15 +0100 in /lustre/scratch/uccabz1/launch_tmp/launcher_2020-09-12-10-05-42-874022
REM CASTEP 20.1 from code version af48c487+ pr-geom-scf-spinfix Tue Jun 2 15:39:59 2020 +0100
REM Functional Perdew Burke Ernzerhof Relativity Koelling-Harmon Dispersion off
REM Cut-off 340.0000 eV Grid scale 1.7500 Gmax 16.5316 1/A FBSC none
REM MP grid 4 3 3 Offset 0.000 0.000 0.000 No. kpts 12 Spacing 0.07
REM Total runtime: 56467.3 s
REM Overall efficiency: 81.5455 %
REM
REM
REM
REM compiler GCC version 4.9.2
REM options -cpp -iprefix /lustre/shared/ucl/apps/gcc/4.9.2/bin/../lib/gcc/x86_64-unknown-linux-gnu/4.9.2/ -mtune=corei7 -march=x86-64 -g -Og
REM COMMAND_LINE
REM seed -298284259 611333716 -2091993778 -1031581240 -944497546 1062402483 714133643 -1747726833 -289641874 322058254 8059376 633028705
REM
REM S 3|1.8|5|6|7|30:31:32(qc=5)
REM O 2|1.5|12|13|15|20:21(qc=5)
REM Li 1|1.3|8|9|10|10U:20(qc=5)
REM Fe 3|2.2|2.0|1.0|8|9|10|40:41:32(qc=5)
REM 
CELL 1.54180    8.08787    9.17559    9.17559  102.42201  120.85358  120.85358
LATT -1
SFAC Li O  S  Fe 
Li     1 -0.7102360000000 -0.0094560000000 -0.4695890000000 1.0  -0.01
Li     1 -0.7102360000000 -0.4695890000000 -0.0094560000000 1.0  -0.01
Li     1 -0.3509240000000 -0.2962930000000  0.4629790000000 1.0   0.01
Li     1 -0.3509240000000  0.4629790000000 -0.2962930000000 1.0   0.01
Li     1  0.1311180000000  0.2055130000000 -0.6035150000000 1.0  -0.03
Li     1  0.1311180000000 -0.6035150000000  0.2055130000000 1.0  -0.03
Li     1 -0.3999820000000  0.0839130000000  0.4848690000000 1.0  -0.01
Li     1 -0.3999820000000  0.4848690000000  0.0839130000000 1.0  -0.01
Li     1  0.4728500000000  0.3602920000000  0.3602920000000 1.0   0.04
O      2  0.4118330000000  0.1757720000000  0.4464300000000 1.0  -0.16
O      2  0.4118330000000  0.4464300000000  0.1757720000000 1.0  -0.16
O      2  0.4456390000000  0.5156250000000  0.5156250000000 1.0  -0.16
S      3 -0.2999060000000 -0.2005340000000  0.0570970000000 1.0  -0.27
S      3 -0.2999060000000  0.0570970000000 -0.2005340000000 1.0  -0.27
S      3  0.1367790000000  0.0547860000000 -0.2873950000000 1.0  -0.09
S      3  0.1367790000000 -0.2873950000000  0.0547860000000 1.0  -0.09
S      3  0.0510910000000 -0.3787250000000  0.2223900000000 1.0  -0.02
S      3  0.0510910000000  0.2223900000000 -0.3787250000000 1.0  -0.02
Fe     4  0.0802800000000  0.1238860000000 -0.0653990000000 1.0  -3.18
Fe     4  0.0802800000000 -0.0653990000000  0.1238860000000 1.0  -3.18
Fe     4 -0.3769370000000 -0.2323700000000 -0.2323700000000 1.0  -3.33
END
