TITL LFSO-Li4Fe3S2O3-200927-190705-f0eab3 0.5644 361.958437 -1.06234607E+004 19.8868 20.6339 24 (Cc) n - 1
REM
REM Run started: Tue, 29 Sep 2020 22:11:45 +0100 in /scratch/scratch/uccabz1/launch_tmp/launcher_2020-09-29-18-13-40-507951
REM CASTEP 19.11| from code version Version unavailable
REM Functional Perdew Burke Ernzerhof Relativity Koelling-Harmon Dispersion off
REM Cut-off 340.0000 eV Grid scale 1.7500 Gmax 16.5316 1/A FBSC none
REM MP grid 5 3 3 Offset 0.000 0.000 0.000 No. kpts 16 Spacing 0.07
REM Total runtime: 136476 s
REM Overall efficiency: 82.25 %
REM
REM
REM
REM compiler GCC version 4.9.2
REM options -cpp -iprefix /lustre/shared/ucl/apps/gcc/4.9.2/bin/../lib/gcc/x86_64-unknown-linux-gnu/4.9.2/ -mtune=corei7 -march=x86-64 -g -Og
REM COMMAND_LINE
REM seed 928610854 -676779705 -1423392155 1959863752 -1684079051 -1780800145 -286832696 -338767876 -608934790 -158887387 1867139062 -481500834
REM
REM S 3|1.8|5|6|7|30:31:32(qc=5)
REM O 2|1.5|12|13|15|20:21(qc=5)
REM Li 1|1.3|8|9|10|10U:20(qc=5)
REM Fe 3|2.2|2.0|1.0|8|9|10|40:41:32(qc=5)
REM 
CELL 1.54180    8.51516   12.44758   12.44758   46.16064   31.69982   31.69982
LATT -1
SFAC Li O  S  Fe 
Li     1 -0.3788390000000 -0.0407090000000  0.1406910000000 1.0  -0.03
Li     1  0.1211610000000  0.1406910000000 -0.0407090000000 1.0  -0.03
Li     1  0.3801580000000 -0.2426120000000  0.1811850000000 1.0   0.00
Li     1 -0.1198420000000  0.1811850000000 -0.2426120000000 1.0   0.00
Li     1 -0.5502360000000 -0.4876420000000  0.0646530000000 1.0  -0.04
Li     1 -0.0502360000000  0.0646530000000 -0.4876420000000 1.0  -0.04
Li     1  0.0739940000000  0.3787440000000  0.1206040000000 1.0  -0.01
Li     1 -0.4260060000000  0.1206040000000  0.3787440000000 1.0  -0.01
O      2 -0.0370400000000 -0.4061630000000 -0.0458660000000 1.0   0.22
O      2 -0.5370400000000 -0.0458660000000 -0.4061630000000 1.0   0.22
O      2  0.5176980000000 -0.1662360000000  0.3654190000000 1.0   0.38
O      2  0.0176980000000  0.3654190000000 -0.1662360000000 1.0   0.38
O      2 -0.1185030000000  0.0318190000000 -0.2629920000000 1.0   0.22
O      2  0.3814970000000 -0.2629920000000  0.0318190000000 1.0   0.22
S      3 -0.0900010000000  0.4627130000000 -0.4621440000000 1.0   0.17
S      3  0.4099990000000 -0.4621440000000  0.4627130000000 1.0   0.17
S      3 -0.3422570000000  0.1750780000000  0.0698940000000 1.0  -0.02
S      3  0.1577430000000  0.0698940000000  0.1750780000000 1.0  -0.02
Fe     4 -0.0576450000000 -0.4193200000000 -0.1767320000000 1.0   3.16
Fe     4 -0.5576450000000 -0.1767320000000 -0.4193200000000 1.0   3.16
Fe     4  0.0155160000000 -0.4895840000000  0.6255890000000 1.0   3.39
Fe     4  0.5155160000000  0.6255890000000 -0.4895840000000 1.0   3.39
Fe     4 -0.6188850000000 -0.1376460000000 -0.1721010000000 1.0   2.49
Fe     4 -0.1188850000000 -0.1721010000000 -0.1376460000000 1.0   2.49
END
