TITL LFSO-Li3Fe3S5O-201002-012857-1ad898 -0.0650 184.205856 -5.14899645E+003 1.62341 2.55557 12 (P1) n - 1
REM
REM Run started: Fri, 02 Oct 2020 03:31:54 +0100 in /scratch/scratch/mmm0366/launch_tmp/launcher_2020-10-02-00-28-56-141090
REM CASTEP 19.11| from code version Version unavailable
REM Functional Perdew Burke Ernzerhof Relativity Koelling-Harmon Dispersion off
REM Cut-off 340.0000 eV Grid scale 1.7500 Gmax 16.5316 1/A FBSC none
REM MP grid 5 3 2 Offset 0.000 0.000 0.000 No. kpts 10 Spacing 0.07
REM Total runtime: 7465.01 s
REM Overall efficiency: 86.8571 %
REM
REM
REM
REM compiler GCC version 4.9.2
REM options -cpp -iprefix /scratch/UCL/applications/gcc/4.9.2/bin/../lib/gcc/x86_64-unknown-linux-gnu/4.9.2/ -mtune=corei7 -march=x86-64 -g -O2
REM COMMAND_LINE
REM seed -1211388110 1565402918 -1141042167 -983513041 81715131 -391461190 2078079911 -418071517 147961487 1667007131 709414868 1572264349
REM
REM S 3|1.8|5|6|7|30:31:32(qc=5)
REM O 2|1.5|12|13|15|20:21(qc=5)
REM Li 1|1.3|8|9|10|10U:20(qc=5)
REM Fe 3|2.2|2.0|1.0|8|9|10|40:41:32(qc=5)
REM 
CELL 1.54180    3.42143    6.45606    8.34306   90.00000   91.72447   90.00000
LATT -1
SFAC Li O  S  Fe 
Li     1 -0.0272270000000  0.2637640000000  0.2592190000000 1.0   0.01
Li     1  0.0272270000000  0.2637640000000 -0.2592190000000 1.0   0.01
Li     1  0.5000000000000  0.1319310000000 -0.5000000000000 1.0  -0.01
O      2  0.0000000000000  0.3276200000000  0.5000000000000 1.0  -0.00
S      3 -0.4653710000000 -0.4789990000000 -0.1780660000000 1.0   0.00
S      3  0.4653710000000 -0.4789990000000  0.1780660000000 1.0   0.00
S      3 -0.4763730000000 -0.0412840000000 -0.2347800000000 1.0   0.03
S      3  0.4763730000000 -0.0412840000000  0.2347800000000 1.0   0.03
S      3  0.0000000000000 -0.4049070000000  0.5000000000000 1.0  -0.01
Fe     4  0.0264270000000 -0.2888410000000 -0.2704360000000 1.0  -0.18
Fe     4 -0.0264270000000 -0.2888410000000  0.2704360000000 1.0  -0.18
Fe     4 -0.5000000000000 -0.2329740000000  0.0000000000000 1.0   1.93
END
