TITL LFSO-Li5FeSO3-200910-043331-75cb00 -0.0490 127.902499 -3.47831263E+003 3.92821 4.00387 10 (P222) n - 1
REM
REM Run started: Thu, 10 Sep 2020 04:56:51 +0100 in /lustre/scratch/uccabz1/launch_tmp/launcher_2020-09-10-03-33-29-810495
REM CASTEP 20.1 from code version af48c487+ pr-geom-scf-spinfix Tue Jun 2 15:39:59 2020 +0100
REM Functional Perdew Burke Ernzerhof Relativity Koelling-Harmon Dispersion off
REM Cut-off 340.0000 eV Grid scale 1.7500 Gmax 16.5316 1/A FBSC none
REM MP grid 4 4 2 Offset 0.000 0.000 0.000 No. kpts 4 Spacing 0.07
REM Total runtime: 1464.28 s
REM Overall efficiency: 87.7143 %
REM
REM
REM
REM compiler GCC version 4.9.2
REM options -cpp -iprefix /lustre/shared/ucl/apps/gcc/4.9.2/bin/../lib/gcc/x86_64-unknown-linux-gnu/4.9.2/ -mtune=corei7 -march=x86-64 -g -Og
REM COMMAND_LINE
REM seed 2137546049 -1219480199 575687530 -1728992612 -1194128989 -431917021 -1913235298 -103018065 -1307850304 2058318470 -487892827 -697993378
REM
REM S 3|1.8|5|6|7|30:31:32(qc=5)
REM O 2|1.5|12|13|15|20:21(qc=5)
REM Li 1|1.3|8|9|10|10U:20(qc=5)
REM Fe 3|2.2|2.0|1.0|8|9|10|40:41:32(qc=5)
REM 
CELL 1.54180    3.68597    3.78551    9.16649   90.00000   90.00000   90.00000
LATT -1
SFAC Li O  S  Fe 
Li     1  0.2748740000000 -0.2688680000000  0.2906900000000 1.0  -0.01
Li     1 -0.2748740000000  0.2688680000000  0.2906900000000 1.0  -0.01
Li     1 -0.2748740000000 -0.2688680000000 -0.2906900000000 1.0  -0.01
Li     1  0.2748740000000  0.2688680000000 -0.2906900000000 1.0  -0.01
Li     1  0.5000000000000  0.0000000000000  0.0000000000000 1.0  -0.04
O      2 -0.5000000000000  0.5000000000000  0.1429350000000 1.0   0.16
O      2 -0.5000000000000  0.5000000000000 -0.1429350000000 1.0   0.16
O      2  0.0000000000000  0.0000000000000  0.0000000000000 1.0   0.24
S      3  0.5000000000000 -0.5000000000000  0.5000000000000 1.0   0.02
Fe     4  0.0000000000000 -0.5000000000000  0.0000000000000 1.0   3.44
END
