TITL LFSO-Li4Fe3S3O2-200927-065912-2b3b9f -0.0506 230.588387 -5.17639272E+003 6.22533 6.68935 12 (R3) n - 1
REM
REM Run started: Sun, 27 Sep 2020 09:16:42 +0100 in /lustre/scratch/uccabz1/launch_tmp/launcher_2020-09-27-05-59-11-065769
REM CASTEP 20.1 from code version af48c487+ pr-geom-scf-spinfix Tue Jun 2 15:39:59 2020 +0100
REM Functional Perdew Burke Ernzerhof Relativity Koelling-Harmon Dispersion off
REM Cut-off 340.0000 eV Grid scale 1.7500 Gmax 16.5316 1/A FBSC none
REM MP grid 3 3 3 Offset 0.000 0.000 0.000 No. kpts 6 Spacing 0.07
REM Total runtime: 8816.41 s
REM Overall efficiency: 97.5 %
REM
REM
REM
REM compiler GCC version 4.9.2
REM options -cpp -iprefix /lustre/shared/ucl/apps/gcc/4.9.2/bin/../lib/gcc/x86_64-unknown-linux-gnu/4.9.2/ -mtune=corei7 -march=x86-64 -g -Og
REM COMMAND_LINE
REM seed -1996289376 -593693263 -1869813302 -1049606418 -1661080299 -12592257 1289952157 -445502004 765587242 -472107667 -1140659687 -130450284
REM
REM S 3|1.8|5|6|7|30:31:32(qc=5)
REM O 2|1.5|12|13|15|20:21(qc=5)
REM Li 1|1.3|8|9|10|10U:20(qc=5)
REM Fe 3|2.2|2.0|1.0|8|9|10|40:41:32(qc=5)
REM 
CELL 1.54180    7.72148    7.72148    7.72148   47.70256   47.70257   47.70257
LATT -1
SFAC Li O  S  Fe 
Li     1 -0.1193900000000  0.1614490000000 -0.6213610000000 1.0  -0.02
Li     1  0.1614490000000 -0.6213610000000 -0.1193900000000 1.0  -0.02
Li     1 -0.6213610000000 -0.1193900000000  0.1614490000000 1.0  -0.02
Li     1  0.2658050000000  0.2658050000000  0.2658050000000 1.0  -0.10
O      2 -0.3826120000000 -0.3826120000000 -0.3826120000000 1.0   0.16
O      2  0.1788100000000  0.1788100000000  0.1788100000000 1.0   0.01
S      3 -0.3108150000000  0.0962550000000  0.2897220000000 1.0   0.01
S      3  0.0962550000000  0.2897220000000 -0.3108150000000 1.0   0.01
S      3  0.2897220000000 -0.3108150000000  0.0962550000000 1.0   0.01
Fe     4  0.4242940000000 -0.0802930000000 -0.3248690000000 1.0   2.06
Fe     4 -0.0802930000000 -0.3248690000000  0.4242940000000 1.0   2.06
Fe     4 -0.3248690000000  0.4242940000000 -0.0802930000000 1.0   2.06
END
