TITL LFSO-Li6FeS3O-200910-035403-d669eb 0.0147 415.402388 -6.82503090E+003 8.00000 8.23359 22 (P3) n - 1
REM
REM Run started: Thu, 10 Sep 2020 18:33:04 +0100 in /lustre/scratch/uccabz1/launch_tmp/launcher_2020-09-10-02-54-00-860043
REM CASTEP 20.1 from code version af48c487+ pr-geom-scf-spinfix Tue Jun 2 15:39:59 2020 +0100
REM Functional Perdew Burke Ernzerhof Relativity Koelling-Harmon Dispersion off
REM Cut-off 340.0000 eV Grid scale 1.7500 Gmax 16.5316 1/A FBSC none
REM MP grid 3 3 2 Offset 0.000 0.000 0.000 No. kpts 5 Spacing 0.07
REM Total runtime: 52893.6 s
REM Overall efficiency: 72.375 %
REM
REM
REM
REM compiler GCC version 4.9.2
REM options -cpp -iprefix /lustre/shared/ucl/apps/gcc/4.9.2/bin/../lib/gcc/x86_64-unknown-linux-gnu/4.9.2/ -mtune=corei7 -march=x86-64 -g -Og
REM COMMAND_LINE
REM seed 1746439507 165227111 -1451620746 -1719311981 -1215566811 683166882 174219574 2045123053 -679376357 -2089667303 -1002934030 -2081255266
REM
REM S 3|1.8|5|6|7|30:31:32(qc=5)
REM O 2|1.5|12|13|15|20:21(qc=5)
REM Li 1|1.3|8|9|10|10U:20(qc=5)
REM Fe 3|2.2|2.0|1.0|8|9|10|40:41:32(qc=5)
REM 
CELL 1.54180    7.36221    7.36221    8.84956   90.00000   90.00000  120.00000
LATT -1
SFAC Li O  S  Fe 
Li     1  0.1268010000000 -0.1022550000000 -0.1782690000000 1.0  -0.03
Li     1  0.1022550000000  0.2290570000000 -0.1782690000000 1.0  -0.03
Li     1 -0.2290570000000 -0.1268010000000 -0.1782690000000 1.0  -0.03
Li     1  0.2552450000000  0.1549070000000  0.0744560000000 1.0   0.02
Li     1 -0.1549070000000  0.1003380000000  0.0744560000000 1.0   0.02
Li     1 -0.1003380000000 -0.2552450000000  0.0744560000000 1.0   0.02
Li     1 -0.1276510000000 -0.3325410000000 -0.3837820000000 1.0   0.02
Li     1  0.3325410000000  0.2048910000000 -0.3837820000000 1.0   0.02
Li     1 -0.2048910000000  0.1276510000000 -0.3837820000000 1.0   0.02
Li     1  0.0278660000000 -0.5998800000000  0.3857130000000 1.0  -0.02
Li     1  0.5998800000000 -0.3722530000000  0.3857130000000 1.0  -0.02
Li     1  0.3722530000000 -0.0278660000000  0.3857130000000 1.0  -0.02
O      2  0.0000000000000 -0.0000000000000 -0.3443830000000 1.0   0.16
O      2  0.0000000000000 -0.0000000000000 -0.0269980000000 1.0   0.01
S      3  0.4888770000000  0.0104110000000 -0.2306900000000 1.0   0.20
S      3 -0.0104110000000  0.4784660000000 -0.2306900000000 1.0   0.20
S      3 -0.4784660000000 -0.4888770000000 -0.2306900000000 1.0   0.20
S      3  0.3131110000000  0.2775870000000  0.3380400000000 1.0   0.12
S      3 -0.2775870000000  0.0355240000000  0.3380400000000 1.0   0.12
S      3 -0.0355240000000 -0.3131110000000  0.3380400000000 1.0   0.12
Fe     4  0.0000000000000 -0.0000000000000  0.4329350000000 1.0   3.47
Fe     4  0.3333330000000 -0.3333330000000 -0.2685200000000 1.0   3.44
END
