TITL LFSO-LiFe3S2O3-200909-193332-3f7702 0.0132 405.815315 -9.42323444E+003 -4.98272 19.5097 18 (P42) n - 1
REM
REM Run started: Thu, 10 Sep 2020 02:00:31 +0100 in /lustre/scratch/uccabz1/launch_tmp/launcher_2020-09-09-18-33-30-410477
REM CASTEP 20.1 from code version af48c487+ pr-geom-scf-spinfix Tue Jun 2 15:39:59 2020 +0100
REM Functional Perdew Burke Ernzerhof Relativity Koelling-Harmon Dispersion off
REM Cut-off 340.0000 eV Grid scale 1.7500 Gmax 16.5316 1/A FBSC none
REM MP grid 3 3 2 Offset 0.000 0.000 0.000 No. kpts 3 Spacing 0.07
REM Total runtime: 23378.1 s
REM Overall efficiency: 97 %
REM
REM
REM
REM compiler GCC version 4.9.2
REM options -cpp -iprefix /lustre/shared/ucl/apps/gcc/4.9.2/bin/../lib/gcc/x86_64-unknown-linux-gnu/4.9.2/ -mtune=corei7 -march=x86-64 -g -Og
REM COMMAND_LINE
REM seed -1325526137 279590032 1063735183 946233470 339366804 1921027646 1690078657 226344916 2009606187 -1586915416 1323981137 705289779
REM
REM S 3|1.8|5|6|7|30:31:32(qc=5)
REM O 2|1.5|12|13|15|20:21(qc=5)
REM Li 1|1.3|8|9|10|10U:20(qc=5)
REM Fe 3|2.2|2.0|1.0|8|9|10|40:41:32(qc=5)
REM 
CELL 1.54180    6.03842    6.03842   11.12964   90.00000   90.00000   90.00000
LATT -1
SFAC Li O  S  Fe 
Li     1  0.0000000000000  0.0000000000000 -0.2604470000000 1.0   0.02
Li     1  0.0000000000000  0.0000000000000  0.2395530000000 1.0   0.02
O      2 -0.1123120000000  0.2674240000000 -0.3402200000000 1.0   0.00
O      2  0.1123120000000 -0.2674240000000 -0.3402200000000 1.0   0.00
O      2 -0.2674240000000 -0.1123120000000  0.1597800000000 1.0   0.00
O      2  0.2674240000000  0.1123120000000  0.1597800000000 1.0   0.00
O      2  0.5000000000000 -0.5000000000000  0.0778340000000 1.0  -0.22
O      2 -0.5000000000000  0.5000000000000  0.5778340000000 1.0  -0.22
S      3  0.2316470000000  0.2827340000000 -0.1460320000000 1.0   0.04
S      3 -0.2316470000000 -0.2827340000000 -0.1460320000000 1.0   0.04
S      3 -0.2827340000000  0.2316470000000  0.3539680000000 1.0   0.04
S      3  0.2827340000000 -0.2316470000000  0.3539680000000 1.0   0.04
Fe     4 -0.2956040000000  0.3073810000000  0.5394880000000 1.0  -2.83
Fe     4  0.2956040000000 -0.3073810000000  0.5394880000000 1.0  -2.83
Fe     4 -0.3073810000000 -0.2956040000000  0.0394880000000 1.0  -2.83
Fe     4  0.3073810000000  0.2956040000000  0.0394880000000 1.0  -2.83
Fe     4  0.0000000000000 -0.5000000000000 -0.2491280000000 1.0   3.27
Fe     4 -0.5000000000000  0.0000000000000  0.2508720000000 1.0   3.27
END
