TITL LFSO-Li4Fe2SO4-200910-160901-f97f76 0.1998 354.374400 -9.16315074E+003 15.6315 15.7128 22 (R3) n - 1
REM
REM Run started: Fri, 11 Sep 2020 22:07:42 +0100 in /lustre/scratch/uccabz1/launch_tmp/launcher_2020-09-10-15-08-58-699674
REM CASTEP 20.1 from code version af48c487+ pr-geom-scf-spinfix Tue Jun 2 15:39:59 2020 +0100
REM Functional Perdew Burke Ernzerhof Relativity Koelling-Harmon Dispersion off
REM Cut-off 340.0000 eV Grid scale 1.7500 Gmax 16.5316 1/A FBSC none
REM MP grid 3 3 3 Offset 0.000 0.000 0.000 No. kpts 6 Spacing 0.07
REM Total runtime: 124300 s
REM Overall efficiency: 98.5833 %
REM
REM
REM
REM compiler GCC version 4.9.2
REM options -cpp -iprefix /lustre/shared/ucl/apps/gcc/4.9.2/bin/../lib/gcc/x86_64-unknown-linux-gnu/4.9.2/ -mtune=corei7 -march=x86-64 -g -Og
REM COMMAND_LINE
REM seed 1740994159 -1419316572 1095053336 -367903029 879340816 1765728160 697294039 1851666599 1029116670 64359537 -349079634 874295474
REM
REM S 3|1.8|5|6|7|30:31:32(qc=5)
REM O 2|1.5|12|13|15|20:21(qc=5)
REM Li 1|1.3|8|9|10|10U:20(qc=5)
REM Fe 3|2.2|2.0|1.0|8|9|10|40:41:32(qc=5)
REM 
CELL 1.54180   10.79898   10.79897   10.79897   34.17862   34.17862   34.17862
LATT -1
SFAC Li O  S  Fe 
Li     1 -0.2567910000000 -0.0134980000000  0.4443930000000 1.0   0.02
Li     1 -0.0134980000000  0.4443930000000 -0.2567910000000 1.0   0.02
Li     1  0.4443930000000 -0.2567910000000 -0.0134980000000 1.0   0.02
Li     1 -0.0881620000000 -0.2997750000000  0.3644010000000 1.0   0.01
Li     1 -0.2997750000000  0.3644010000000 -0.0881620000000 1.0   0.01
Li     1  0.3644010000000 -0.0881620000000 -0.2997750000000 1.0   0.01
Li     1 -0.3973420000000 -0.3973420000000 -0.3973420000000 1.0   0.02
Li     1 -0.0552200000000 -0.0552200000000 -0.0552200000000 1.0  -0.03
O      2 -0.2051360000000  0.3342620000000  0.4030650000000 1.0   0.32
O      2  0.3342620000000  0.4030650000000 -0.2051360000000 1.0   0.32
O      2  0.4030650000000 -0.2051360000000  0.3342620000000 1.0   0.32
O      2 -0.1785100000000 -0.2969440000000  0.2664930000000 1.0   0.42
O      2 -0.2969440000000  0.2664930000000 -0.1785100000000 1.0   0.42
O      2  0.2664930000000 -0.1785100000000 -0.2969440000000 1.0   0.42
O      2 -0.1520960000000 -0.1520960000000 -0.1520960000000 1.0   0.46
O      2 -0.3086690000000 -0.3086690000000 -0.3086690000000 1.0   0.01
S      3  0.0285000000000  0.0285000000000  0.0285000000000 1.0   0.02
S      3  0.4079640000000  0.4079640000000  0.4079640000000 1.0   0.24
Fe     4 -0.2387290000000 -0.3387150000000  0.1921010000000 1.0   3.71
Fe     4 -0.3387150000000  0.1921010000000 -0.2387290000000 1.0   3.71
Fe     4  0.1921010000000 -0.2387290000000 -0.3387150000000 1.0   3.71
Fe     4  0.4797830000000  0.4797830000000  0.4797830000000 1.0   1.48
END
