TITL LFSO-Li2Fe2SO2-200913-002014-07e73b 4.1153 516.351142 -9912.196186656 -4.91584 9.98320 21 (Cm) n - 1
REM
REM Run started: Sun, 13 Sep 2020 23:51:10 +0100 in /lustre/scratch/uccabz1/launch_tmp/launcher_2020-09-12-23-20-12-747856
REM CASTEP 20.1 from code version af48c487+ pr-geom-scf-spinfix Tue Jun 2 15:39:59 2020 +0100
REM Functional Perdew Burke Ernzerhof Relativity Koelling-Harmon Dispersion off
REM Cut-off 340.0000 eV Grid scale 1.7500 Gmax 16.5316 1/A FBSC none
REM MP grid 3 2 3 Offset 0.000 0.000 0.000 No. kpts 6 Spacing 0.07
REM Total runtime: 84643.9 s
REM Overall efficiency: 98.8182 %
REM
REM
REM
REM compiler GCC version 4.9.2
REM options -cpp -iprefix /lustre/shared/ucl/apps/gcc/4.9.2/bin/../lib/gcc/x86_64-unknown-linux-gnu/4.9.2/ -mtune=corei7 -march=x86-64 -g -Og
REM COMMAND_LINE
REM seed -1633627034 -271828869 -1963679497 -790317458 -1651155731 1146386919 -874733561 -335051159 -936799463 -1557016833 -1674359436 245652838
REM
REM S 3|1.8|5|6|7|30:31:32(qc=5)
REM O 2|1.5|12|13|15|20:21(qc=5)
REM Li 1|1.3|8|9|10|10U:20(qc=5)
REM Fe 3|2.2|2.0|1.0|8|9|10|40:41:32(qc=5)
REM 
CELL 1.54180    9.29838    9.32754    7.55379   89.77295  127.98661   90.00000
LATT -1
SFAC Li O  S  Fe 
Li     1 -0.1573400000000 -0.2303050000000  0.1820440000000 1.0   0.01
Li     1  0.3393840000000 -0.2303050000000  0.1820440000000 1.0   0.01
Li     1 -0.0137300000000  0.0721430000000  0.3464980000000 1.0  -0.02
Li     1  0.3602280000000  0.0721430000000  0.3464980000000 1.0  -0.02
Li     1 -0.6104570000000  0.4275720000000  0.4052120000000 1.0  -0.01
Li     1  0.0156690000000  0.4275720000000  0.4052120000000 1.0  -0.01
O      2 -0.0281160000000 -0.1002280000000 -0.5580550000000 1.0   0.35
O      2 -0.5299390000000 -0.1002280000000 -0.5580550000000 1.0   0.35
O      2 -0.3210730000000 -0.1753830000000 -0.1230340000000 1.0   0.31
O      2  0.1980390000000 -0.1753830000000 -0.1230340000000 1.0   0.31
O      2  0.0241370000000 -0.3777870000000  0.4136860000000 1.0   0.35
O      2  0.3895490000000 -0.3777870000000  0.4136860000000 1.0   0.35
S      3 -0.4035250000000  0.2206070000000 -0.3790320000000 1.0   0.11
S      3  0.0244920000000  0.2206070000000 -0.3790320000000 1.0   0.11
S      3  0.1293150000000  0.2469740000000  0.2586290000000 1.0   0.05
Fe     4  0.0786530000000  0.2061170000000 -0.0647850000000 1.0   2.37
Fe     4 -0.1434380000000  0.2061170000000 -0.0647850000000 1.0   2.37
Fe     4 -0.3097730000000 -0.0215620000000 -0.2788360000000 1.0   3.41
Fe     4  0.0309380000000 -0.0215620000000 -0.2788360000000 1.0   3.41
Fe     4  0.1215650000000 -0.2413750000000  0.6054910000000 1.0   3.16
Fe     4  0.4839260000000 -0.2413750000000  0.6054910000000 1.0   3.16
END
