TITL LFSO-Li2Fe2S2O-200913-140304-b4eebe -0.0342 198.147551 -6.34089610E+003 4.69830 5.79426 14 (Pmn21) n - 1
REM
REM Run started: Sun, 13 Sep 2020 14:48:45 +0100 in /lustre/scratch/uccabz1/launch_tmp/launcher_2020-09-13-13-43-49-228807
REM CASTEP 20.1 from code version af48c487+ pr-geom-scf-spinfix Tue Jun 2 15:39:59 2020 +0100
REM Functional Perdew Burke Ernzerhof Relativity Koelling-Harmon Dispersion off
REM Cut-off 340.0000 eV Grid scale 1.7500 Gmax 16.5316 1/A FBSC none
REM MP grid 3 3 3 Offset 0.000 0.000 0.000 No. kpts 8 Spacing 0.07
REM Total runtime: 1356.19 s
REM Overall efficiency: 89.8333 %
REM
REM
REM
REM compiler GCC version 4.9.2
REM options -cpp -iprefix /lustre/shared/ucl/apps/gcc/4.9.2/bin/../lib/gcc/x86_64-unknown-linux-gnu/4.9.2/ -mtune=corei7 -march=x86-64 -g -Og
REM COMMAND_LINE
REM seed 983770057 1904285616 1585759836 1566863327 1267210782 -1548665052 70669380 1560761962 -433520163 695634744 -1236104665 -1069086879
REM
REM S 3|1.8|5|6|7|30:31:32(qc=5)
REM O 2|1.5|12|13|15|20:21(qc=5)
REM Li 1|1.3|8|9|10|10U:20(qc=5)
REM Fe 3|2.2|2.0|1.0|8|9|10|40:41:32(qc=5)
REM 
CELL 1.54180    5.09130    5.97753    6.51086   90.00000   90.00000   90.00000
LATT -1
SFAC Li O  S  Fe 
Li     1 -0.2473160000000 -0.2335970000000  0.4072030000000 1.0  -0.02
Li     1 -0.2526840000000  0.2664030000000 -0.4072030000000 1.0  -0.02
Li     1  0.2526840000000  0.2664030000000 -0.4072030000000 1.0  -0.02
Li     1  0.2473160000000 -0.2335970000000  0.4072030000000 1.0  -0.02
O      2 -0.0000000000000 -0.3926790000000 -0.3879120000000 1.0   0.05
O      2 -0.5000000000000  0.1073210000000  0.3879120000000 1.0   0.05
S      3 -0.2657840000000 -0.4688580000000  0.1090790000000 1.0  -0.08
S      3 -0.2342160000000  0.0311420000000 -0.1090790000000 1.0  -0.08
S      3  0.2342160000000  0.0311420000000 -0.1090790000000 1.0  -0.08
S      3  0.2657840000000 -0.4688580000000  0.1090790000000 1.0  -0.08
Fe     4  0.2778770000000 -0.3174610000000 -0.1923950000000 1.0   1.24
Fe     4  0.2221230000000  0.1825390000000  0.1923950000000 1.0   1.24
Fe     4 -0.2221230000000  0.1825390000000  0.1923950000000 1.0   1.24
Fe     4 -0.2778770000000 -0.3174610000000 -0.1923950000000 1.0   1.24
END
