TITL LFSO-Li4Fe3S2O3-201001-205646-503861 -0.0205 470.611766 -1.06198905E+004 -19.2838 20.0573 24 (Pma2) n - 1
REM
REM Run started: Fri, 02 Oct 2020 13:47:25 +0100 in /lustre/scratch/uccabz1/launch_tmp/launcher_2020-10-02-12-21-01-802728
REM CASTEP 20.1 from code version af48c487+ pr-geom-scf-spinfix Tue Jun 2 15:39:59 2020 +0100
REM Functional Perdew Burke Ernzerhof Relativity Koelling-Harmon Dispersion off
REM Cut-off 340.0000 eV Grid scale 1.7500 Gmax 16.5316 1/A FBSC none
REM MP grid 5 2 1 Offset 0.000 0.000 0.000 No. kpts 3 Spacing 0.07
REM Total runtime: 44301.9 s
REM Overall efficiency: 86.9 %
REM
REM
REM
REM compiler GCC version 4.9.2
REM options -cpp -iprefix /lustre/shared/ucl/apps/gcc/4.9.2/bin/../lib/gcc/x86_64-unknown-linux-gnu/4.9.2/ -mtune=corei7 -march=x86-64 -g -Og
REM COMMAND_LINE
REM seed -1811192641 -1086014542 83192946 815194684 1011289389 1937730261 -897093043 -500780695 211901712 129786325 -839270093 -515898240
REM
REM S 3|1.8|5|6|7|30:31:32(qc=5)
REM O 2|1.5|12|13|15|20:21(qc=5)
REM Li 1|1.3|8|9|10|10U:20(qc=5)
REM Fe 3|2.2|2.0|1.0|8|9|10|40:41:32(qc=5)
REM 
CELL 1.54180    2.93164    8.52188   18.83721   90.00000   90.00000   90.00000
LATT -1
SFAC Li O  S  Fe 
Li     1 -0.2807520000000  0.4254570000000  0.0717850000000 1.0   0.03
Li     1  0.2807520000000  0.4254570000000 -0.0717850000000 1.0   0.03
Li     1  0.2807520000000  0.4254570000000 -0.4282150000000 1.0   0.03
Li     1 -0.2807520000000  0.4254570000000  0.4282150000000 1.0   0.03
Li     1 -0.2172180000000 -0.1079770000000 -0.1400700000000 1.0   0.02
Li     1  0.2172180000000 -0.1079770000000  0.1400700000000 1.0   0.02
Li     1  0.2172180000000 -0.1079770000000  0.3599300000000 1.0   0.02
Li     1 -0.2172180000000 -0.1079770000000 -0.3599300000000 1.0   0.02
O      2 -0.2876520000000  0.0268310000000  0.1050980000000 1.0  -0.19
O      2  0.2876520000000  0.0268310000000 -0.1050980000000 1.0  -0.19
O      2  0.2876520000000  0.0268310000000 -0.3949020000000 1.0  -0.19
O      2 -0.2876520000000  0.0268310000000  0.3949020000000 1.0  -0.19
O      2  0.0000000000000  0.2985440000000 -0.0000000000000 1.0  -0.21
O      2  0.0000000000000  0.2985440000000  0.5000000000000 1.0  -0.21
S      3 -0.2254900000000 -0.3888010000000 -0.3662520000000 1.0  -0.09
S      3  0.2254900000000 -0.3888010000000  0.3662520000000 1.0  -0.09
S      3  0.2254900000000 -0.3888010000000  0.1337480000000 1.0  -0.09
S      3 -0.2254900000000 -0.3888010000000 -0.1337480000000 1.0  -0.09
Fe     4 -0.2255490000000  0.1125770000000 -0.4485040000000 1.0  -2.86
Fe     4  0.2255490000000  0.1125770000000  0.4485040000000 1.0  -2.86
Fe     4  0.2255490000000  0.1125770000000  0.0514960000000 1.0  -2.86
Fe     4 -0.2255490000000  0.1125770000000 -0.0514960000000 1.0  -2.86
Fe     4 -0.2166500000000  0.5945130000000 -0.2500000000000 1.0  -3.24
Fe     4  0.2166500000000  0.5945130000000  0.2500000000000 1.0  -3.24
END
