TITL LFSO-Li6FeS2O2-200920-212945-d40e7e -0.0233 387.222515 -3.54271873E+003 -3.99992 4.22038 11 (P3) n - 1
REM
REM Run started: Mon, 21 Sep 2020 08:09:35 +0100 in /lustre/scratch/uccabz1/launch_tmp/launcher_2020-09-20-20-29-43-361623
REM CASTEP 20.1 from code version af48c487+ pr-geom-scf-spinfix Tue Jun 2 15:39:59 2020 +0100
REM Functional Perdew Burke Ernzerhof Relativity Koelling-Harmon Dispersion off
REM Cut-off 340.0000 eV Grid scale 1.7500 Gmax 16.5316 1/A FBSC none
REM MP grid 3 3 2 Offset 0.000 0.000 0.000 No. kpts 5 Spacing 0.07
REM Total runtime: 40820.9 s
REM Overall efficiency: 82.4615 %
REM
REM
REM
REM compiler GCC version 4.9.2
REM options -cpp -iprefix /lustre/shared/ucl/apps/gcc/4.9.2/bin/../lib/gcc/x86_64-unknown-linux-gnu/4.9.2/ -mtune=corei7 -march=x86-64 -g -Og
REM COMMAND_LINE
REM seed 1484499637 657317475 1940138330 -875294056 -780069717 -1957106100 -866205350 -1163845438 2044353996 840967310 -126974811 -906989790
REM
REM S 3|1.8|5|6|7|30:31:32(qc=5)
REM O 2|1.5|12|13|15|20:21(qc=5)
REM Li 1|1.3|8|9|10|10U:20(qc=5)
REM Fe 3|2.2|2.0|1.0|8|9|10|40:41:32(qc=5)
REM 
CELL 1.54180    6.75997    6.75997    9.78453   90.00000   90.00000  120.00000
LATT -1
SFAC Li O  S  Fe 
Li     1  0.2157810000000  0.3925280000000 -0.2871850000000 1.0   0.02
Li     1 -0.3925280000000 -0.1767470000000 -0.2871850000000 1.0   0.02
Li     1  0.1767470000000 -0.2157810000000 -0.2871850000000 1.0   0.02
Li     1  0.3249640000000 -0.1295910000000  0.2920350000000 1.0   0.03
Li     1  0.1295910000000  0.4545550000000  0.2920350000000 1.0   0.03
Li     1 -0.4545550000000 -0.3249640000000  0.2920350000000 1.0   0.03
O      2  0.3333330000000 -0.3333330000000  0.1740800000000 1.0  -0.11
O      2  0.3333330000000 -0.3333330000000 -0.1888490000000 1.0  -0.21
S      3 -0.0000000000000  0.0000000000000 -0.2667160000000 1.0  -0.32
S      3  0.3333330000000 -0.3333330000000 -0.5159760000000 1.0  -0.01
Fe     4  0.3333330000000 -0.3333330000000 -0.0097660000000 1.0  -3.49
END
