TITL LFSO-Li3FeSO2-200911-152346-9c7d41 -0.0881 382.798939 -7.92611584E+003 -11.0863 11.3890 21 (F222) n - 1
REM
REM Run started: Sun, 13 Sep 2020 03:47:52 +0100 in /lustre/scratch/uccabz1/launch_tmp/launcher_2020-09-11-14-23-43-795622
REM CASTEP 20.1 from code version af48c487+ pr-geom-scf-spinfix Tue Jun 2 15:39:59 2020 +0100
REM Functional Perdew Burke Ernzerhof Relativity Koelling-Harmon Dispersion off
REM Cut-off 340.0000 eV Grid scale 1.7500 Gmax 16.5316 1/A FBSC none
REM MP grid 3 3 4 Offset 0.000 0.000 0.000 No. kpts 12 Spacing 0.07
REM Total runtime: 146538 s
REM Overall efficiency: 98.75 %
REM
REM
REM
REM compiler GCC version 4.9.2
REM options -cpp -iprefix /lustre/shared/ucl/apps/gcc/4.9.2/bin/../lib/gcc/x86_64-unknown-linux-gnu/4.9.2/ -mtune=corei7 -march=x86-64 -g -Og
REM COMMAND_LINE
REM seed 589190089 493833087 1908667103 -751161196 728658757 179876627 421512678 403984915 67103482 -1158578744 1617656628 1592391936
REM
REM S 3|1.8|5|6|7|30:31:32(qc=5)
REM O 2|1.5|12|13|15|20:21(qc=5)
REM Li 1|1.3|8|9|10|10U:20(qc=5)
REM Fe 3|2.2|2.0|1.0|8|9|10|40:41:32(qc=5)
REM 
CELL 1.54180   10.60803   10.60803    8.55589  132.68169  132.68169   84.63165
LATT -1
SFAC Li O  S  Fe 
Li     1  0.2252750000000  0.0152340000000  0.5614120000000 1.0  -0.02
Li     1 -0.5461780000000 -0.3361370000000 -0.5614120000000 1.0  -0.02
Li     1 -0.0152340000000 -0.2252750000000 -0.5614120000000 1.0  -0.02
Li     1  0.3361370000000  0.5461780000000  0.5614120000000 1.0  -0.02
Li     1 -0.3458250000000 -0.5025410000000 -0.2497950000000 1.0  -0.01
Li     1 -0.2527460000000 -0.0960310000000  0.2497950000000 1.0  -0.01
Li     1  0.5025410000000  0.3458250000000  0.2497950000000 1.0  -0.01
Li     1  0.0960310000000  0.2527460000000 -0.2497950000000 1.0  -0.01
Li     1  0.0000000000000 -0.0000000000000  0.0000000000000 1.0   0.10
O      2  0.3095030000000  0.4877630000000 -0.0309040000000 1.0  -0.29
O      2 -0.4813340000000  0.3404070000000  0.0309040000000 1.0  -0.29
O      2 -0.4877630000000 -0.3095030000000  0.0309040000000 1.0  -0.29
O      2 -0.3404070000000  0.4813340000000 -0.0309040000000 1.0  -0.29
O      2  0.4740980000000 -0.4740980000000 -0.5000000000000 1.0  -0.01
O      2  0.0259020000000 -0.0259020000000  0.5000000000000 1.0  -0.01
S      3  0.4315720000000 -0.0684280000000 -0.5000000000000 1.0  -0.22
S      3  0.0684280000000 -0.4315720000000 -0.5000000000000 1.0  -0.22
S      3 -0.2500000000000  0.2500000000000 -0.5000000000000 1.0  -0.51
Fe     4  0.3190470000000 -0.3190470000000  0.0000000000000 1.0  -3.34
Fe     4 -0.3190470000000  0.3190470000000  0.0000000000000 1.0  -3.34
Fe     4 -0.5000000000000  0.5000000000000  0.0000000000000 1.0  -2.27
END
