TITL LFSO-Li4FeS2O-200910-112610-3ae7a8 0.0831 328.045535 -5.41827520E+003 8.00000 8.27654 16 (Cc) n - 1
REM
REM Run started: Thu, 10 Sep 2020 20:46:22 +0100 in /lustre/scratch/uccabz1/launch_tmp/launcher_2020-09-10-10-26-07-523468
REM CASTEP 20.1 from code version af48c487+ pr-geom-scf-spinfix Tue Jun 2 15:39:59 2020 +0100
REM Functional Perdew Burke Ernzerhof Relativity Koelling-Harmon Dispersion off
REM Cut-off 340.0000 eV Grid scale 1.7500 Gmax 16.5316 1/A FBSC none
REM MP grid 4 4 3 Offset 0.000 0.000 0.000 No. kpts 16 Spacing 0.07
REM Total runtime: 39870.4 s
REM Overall efficiency: 93.25 %
REM
REM
REM
REM compiler GCC version 4.9.2
REM options -cpp -iprefix /lustre/shared/ucl/apps/gcc/4.9.2/bin/../lib/gcc/x86_64-unknown-linux-gnu/4.9.2/ -mtune=corei7 -march=x86-64 -g -Og
REM COMMAND_LINE
REM seed 835554902 -954700361 -1921580476 -323122710 1235365298 -1809083714 553636572 -1983772342 -2120453636 294525812 597596161 1822384647
REM
REM S 3|1.8|5|6|7|30:31:32(qc=5)
REM O 2|1.5|12|13|15|20:21(qc=5)
REM Li 1|1.3|8|9|10|10U:20(qc=5)
REM Fe 3|2.2|2.0|1.0|8|9|10|40:41:32(qc=5)
REM 
CELL 1.54180    8.54787    8.54787   15.21082   33.34545   33.34545   40.31881
LATT -1
SFAC Li O  S  Fe 
Li     1  0.2868860000000  0.0182920000000  0.2927510000000 1.0   0.00
Li     1  0.0182920000000  0.2868860000000 -0.2072490000000 1.0   0.00
Li     1 -0.3594750000000 -0.1594120000000 -0.3439560000000 1.0  -0.03
Li     1 -0.1594120000000 -0.3594750000000  0.1560440000000 1.0  -0.03
Li     1  0.6128640000000 -0.5295470000000  0.5019060000000 1.0   0.01
Li     1 -0.5295470000000  0.6128640000000  0.0019060000000 1.0   0.01
Li     1  0.1044280000000 -0.0850180000000  0.1818880000000 1.0  -0.02
Li     1 -0.0850180000000  0.1044280000000 -0.3181120000000 1.0  -0.02
O      2 -0.3654520000000  0.4593870000000 -0.1280100000000 1.0   0.19
O      2  0.4593870000000 -0.3654520000000  0.3719900000000 1.0   0.19
S      3  0.1251510000000 -0.1174600000000 -0.1783540000000 1.0   0.19
S      3 -0.1174600000000  0.1251510000000  0.3216460000000 1.0   0.19
S      3  0.1840110000000 -0.5811710000000  0.3406230000000 1.0   0.05
S      3 -0.5811710000000  0.1840110000000 -0.1593770000000 1.0   0.05
Fe     4  0.4251300000000  0.4309530000000 -0.1245650000000 1.0   3.60
Fe     4  0.4309530000000  0.4251300000000  0.3754350000000 1.0   3.60
END
