TITL LFSO-Li4FeSO2-200910-090753-00fbbb 0.0036 211.667818 -5.68682457E+003 8.00000 8.22079 16 (P-1) n - 1
REM
REM Run started: Thu, 10 Sep 2020 13:11:16 +0100 in /lustre/scratch/uccabz1/launch_tmp/launcher_2020-09-10-08-07-50-627527
REM CASTEP 20.1 from code version af48c487+ pr-geom-scf-spinfix Tue Jun 2 15:39:59 2020 +0100
REM Functional Perdew Burke Ernzerhof Relativity Koelling-Harmon Dispersion off
REM Cut-off 340.0000 eV Grid scale 1.7500 Gmax 16.5316 1/A FBSC none
REM MP grid 3 3 3 Offset 0.000 0.000 0.000 No. kpts 14 Spacing 0.07
REM Total runtime: 16539.1 s
REM Overall efficiency: 97.5 %
REM
REM
REM
REM compiler GCC version 4.9.2
REM options -cpp -iprefix /lustre/shared/ucl/apps/gcc/4.9.2/bin/../lib/gcc/x86_64-unknown-linux-gnu/4.9.2/ -mtune=corei7 -march=x86-64 -g -Og
REM COMMAND_LINE
REM seed -1923244588 -407925059 -234692388 -1640818126 1124775750 98962763 1285637408 -377499507 -2035888103 -1025893563 1122717669 -1277842081
REM
REM S 3|1.8|5|6|7|30:31:32(qc=5)
REM O 2|1.5|12|13|15|20:21(qc=5)
REM Li 1|1.3|8|9|10|10U:20(qc=5)
REM Fe 3|2.2|2.0|1.0|8|9|10|40:41:32(qc=5)
REM 
CELL 1.54180    5.67985    6.87350    6.13810   69.30245   76.72067   72.42997
LATT -1
SFAC Li O  S  Fe 
Li     1 -0.1559550000000  0.1306200000000  0.0798760000000 1.0  -0.04
Li     1  0.1559550000000 -0.1306200000000 -0.0798760000000 1.0  -0.04
Li     1  0.4486740000000 -0.1145520000000 -0.5832900000000 1.0  -0.02
Li     1 -0.4486740000000  0.1145520000000  0.5832900000000 1.0  -0.02
Li     1 -0.4401320000000  0.5415620000000 -0.2954980000000 1.0  -0.00
Li     1  0.4401320000000 -0.5415620000000  0.2954980000000 1.0  -0.00
Li     1  0.0088010000000  0.2005810000000  0.4835080000000 1.0   0.02
Li     1 -0.0088010000000 -0.2005810000000 -0.4835080000000 1.0   0.02
O      2  0.5289450000000  0.1890940000000  0.2524630000000 1.0   0.20
O      2 -0.5289450000000 -0.1890940000000 -0.2524630000000 1.0   0.20
O      2  0.1273460000000 -0.0053370000000  0.2468120000000 1.0   0.25
O      2 -0.1273460000000  0.0053370000000 -0.2468120000000 1.0   0.25
S      3 -0.2145760000000 -0.3964550000000  0.2961190000000 1.0   0.12
S      3  0.2145760000000  0.3964550000000 -0.2961190000000 1.0   0.12
Fe     4 -0.3448720000000 -0.1616280000000 -0.0490040000000 1.0   3.46
Fe     4  0.3448720000000  0.1616280000000  0.0490040000000 1.0   3.46
END
