TITL LFSO-LiFe3SO4-200909-003859-3eeb86 -0.0482 223.861698 -9.68995927E+003 16.7272 17.2420 18 (R3) n - 1
REM
REM Run started: Wed, 09 Sep 2020 05:43:49 +0100 in /lustre/scratch/uccabz1/launch_tmp/launcher_2020-09-08-23-38-58-296643
REM CASTEP 20.1 from code version af48c487+ pr-geom-scf-spinfix Tue Jun 2 15:39:59 2020 +0100
REM Functional Perdew Burke Ernzerhof Relativity Koelling-Harmon Dispersion off
REM Cut-off 340.0000 eV Grid scale 1.7500 Gmax 16.5316 1/A FBSC none
REM MP grid 3 3 3 Offset 0.000 0.000 0.000 No. kpts 6 Spacing 0.07
REM Total runtime: 18600 s
REM Overall efficiency: 97.4444 %
REM
REM
REM
REM compiler GCC version 4.9.2
REM options -cpp -iprefix /lustre/shared/ucl/apps/gcc/4.9.2/bin/../lib/gcc/x86_64-unknown-linux-gnu/4.9.2/ -mtune=corei7 -march=x86-64 -g -Og
REM COMMAND_LINE
REM seed 1512218501 -1808399009 1611646977 1904014483 -1979227862 753996576 461685569 -570679224 223883911 1592391936 496554215 818160150
REM
REM S 3|1.8|5|6|7|30:31:32(qc=5)
REM O 2|1.5|12|13|15|20:21(qc=5)
REM Li 1|1.3|8|9|10|10U:20(qc=5)
REM Fe 3|2.2|2.0|1.0|8|9|10|40:41:32(qc=5)
REM 
CELL 1.54180    6.47310    6.47310    6.47310   67.87142   67.87142   67.87142
LATT -1
SFAC Li O  S  Fe 
Li     1  0.4706360000000  0.4706360000000  0.4706360000000 1.0   0.03
Li     1  0.1894650000000  0.1894650000000  0.1894650000000 1.0  -0.01
O      2  0.3898220000000  0.1469330000000 -0.2604340000000 1.0   0.28
O      2  0.1469330000000 -0.2604340000000  0.3898220000000 1.0   0.28
O      2 -0.2604340000000  0.3898220000000  0.1469330000000 1.0   0.28
O      2 -0.0360810000000  0.1723430000000  0.4868800000000 1.0   0.24
O      2  0.1723430000000  0.4868800000000 -0.0360810000000 1.0   0.24
O      2  0.4868800000000 -0.0360810000000  0.1723430000000 1.0   0.24
O      2  0.3316520000000  0.3316520000000  0.3316520000000 1.0   0.08
O      2 -0.1519640000000 -0.1519640000000 -0.1519640000000 1.0   0.16
S      3 -0.3388220000000 -0.3388220000000 -0.3388220000000 1.0   0.02
S      3 -0.0371030000000 -0.0371030000000 -0.0371030000000 1.0  -0.10
Fe     4 -0.0696620000000  0.5052060000000 -0.1268590000000 1.0   2.69
Fe     4  0.5052060000000 -0.1268590000000 -0.0696620000000 1.0   2.69
Fe     4 -0.1268590000000 -0.0696620000000  0.5052060000000 1.0   2.69
Fe     4  0.1846510000000 -0.3719470000000  0.1531130000000 1.0   2.31
Fe     4 -0.3719470000000  0.1531130000000  0.1846510000000 1.0   2.31
Fe     4  0.1531130000000  0.1846510000000 -0.3719470000000 1.0   2.31
END
