TITL LFSO-Li2Fe2SO2-200913-015556-ed04a1 0.0240 90.673202 -3.30713311E+003 7.84515 7.87541 7 (P2) n - 1
REM
REM Run started: Sun, 13 Sep 2020 02:55:27 +0100 in /lustre/scratch/uccabz1/launch_tmp/launcher_2020-09-13-00-55-54-495941
REM CASTEP 20.1 from code version af48c487+ pr-geom-scf-spinfix Tue Jun 2 15:39:59 2020 +0100
REM Functional Perdew Burke Ernzerhof Relativity Koelling-Harmon Dispersion off
REM Cut-off 340.0000 eV Grid scale 1.7500 Gmax 16.5316 1/A FBSC none
REM MP grid 4 5 3 Offset 0.000 0.000 0.000 No. kpts 18 Spacing 0.07
REM Total runtime: 4032.62 s
REM Overall efficiency: 93.1 %
REM
REM
REM
REM compiler GCC version 4.9.2
REM options -cpp -iprefix /lustre/shared/ucl/apps/gcc/4.9.2/bin/../lib/gcc/x86_64-unknown-linux-gnu/4.9.2/ -mtune=corei7 -march=x86-64 -g -Og
REM COMMAND_LINE
REM seed 253507238 607024248 1114986887 299566533 -605093626 1244136057 1463228070 1499725921 466816522 -1060760125 -226274576 -1099312017
REM
REM S 3|1.8|5|6|7|30:31:32(qc=5)
REM O 2|1.5|12|13|15|20:21(qc=5)
REM Li 1|1.3|8|9|10|10U:20(qc=5)
REM Fe 3|2.2|2.0|1.0|8|9|10|40:41:32(qc=5)
REM 
CELL 1.54180    3.93199    3.41186    7.06086   90.00000  106.81715   90.00000
LATT -1
SFAC Li O  S  Fe 
Li     1  0.3125770000000  0.3775050000000  0.1258570000000 1.0  -0.07
Li     1 -0.3125770000000  0.3775050000000 -0.1258570000000 1.0  -0.07
O      2 -0.1664330000000 -0.6171890000000  0.1657400000000 1.0   0.29
O      2  0.1664330000000 -0.6171890000000 -0.1657400000000 1.0   0.29
S      3  0.5000000000000 -0.1005760000000 -0.5000000000000 1.0   0.35
Fe     4 -0.0985510000000 -0.1187530000000  0.3095260000000 1.0   3.53
Fe     4  0.0985510000000 -0.1187530000000 -0.3095260000000 1.0   3.53
END
