TITL LFSO-Li2Fe4S3O2-200912-035821-4feec4 0.0291 311.776529 -1.12802124E+004 -25.3970 25.8469 22 (Pnc2) n - 1
REM
REM Run started: Sat, 12 Sep 2020 14:05:31 +0100 in /lustre/scratch/uccabz1/launch_tmp/launcher_2020-09-12-02-58-20-031111
REM CASTEP 20.1 from code version af48c487+ pr-geom-scf-spinfix Tue Jun 2 15:39:59 2020 +0100
REM Functional Perdew Burke Ernzerhof Relativity Koelling-Harmon Dispersion off
REM Cut-off 340.0000 eV Grid scale 1.7500 Gmax 16.5316 1/A FBSC none
REM MP grid 4 3 2 Offset 0.000 0.000 0.000 No. kpts 4 Spacing 0.07
REM Total runtime: 38959.7 s
REM Overall efficiency: 98 %
REM
REM
REM
REM compiler GCC version 4.9.2
REM options -cpp -iprefix /lustre/shared/ucl/apps/gcc/4.9.2/bin/../lib/gcc/x86_64-unknown-linux-gnu/4.9.2/ -mtune=corei7 -march=x86-64 -g -Og
REM COMMAND_LINE
REM seed -1986770392 409882341 748565809 -1271247634 -11122585 1440151158 -474039866 -284495587 -1222095946 -218351003 2144534501 -1722309364
REM
REM S 3|1.8|5|6|7|30:31:32(qc=5)
REM O 2|1.5|12|13|15|20:21(qc=5)
REM Li 1|1.3|8|9|10|10U:20(qc=5)
REM Fe 3|2.2|2.0|1.0|8|9|10|40:41:32(qc=5)
REM 
CELL 1.54180    4.67523    6.50023   10.25915   90.00000   90.00000   90.00000
LATT -1
SFAC Li O  S  Fe 
Li     1  0.3937180000000  0.4056400000000 -0.2717440000000 1.0   0.07
Li     1 -0.3937180000000  0.4056400000000  0.2717440000000 1.0   0.07
Li     1  0.1062820000000 -0.0943600000000 -0.2717440000000 1.0   0.07
Li     1 -0.1062820000000 -0.0943600000000  0.2717440000000 1.0   0.07
O      2  0.3608440000000  0.1200550000000 -0.2558350000000 1.0  -0.22
O      2 -0.3608440000000  0.1200550000000  0.2558350000000 1.0  -0.22
O      2  0.1391560000000 -0.3799450000000 -0.2558350000000 1.0  -0.22
O      2 -0.1391560000000 -0.3799450000000  0.2558350000000 1.0  -0.22
S      3 -0.2498070000000 -0.1185410000000 -0.0884420000000 1.0  -0.07
S      3  0.2498070000000 -0.1185410000000  0.0884420000000 1.0  -0.07
S      3 -0.2501930000000  0.3814590000000 -0.0884420000000 1.0  -0.07
S      3  0.2501930000000  0.3814590000000  0.0884420000000 1.0  -0.07
S      3 -0.0000000000000 -0.0696100000000  0.5000000000000 1.0  -0.21
S      3 -0.5000000000000  0.4303900000000  0.5000000000000 1.0  -0.21
Fe     4 -0.1167800000000 -0.4075910000000 -0.3977360000000 1.0  -3.25
Fe     4  0.1167800000000 -0.4075910000000  0.3977360000000 1.0  -3.25
Fe     4 -0.3832200000000  0.0924090000000 -0.3977360000000 1.0  -3.25
Fe     4  0.3832200000000  0.0924090000000  0.3977360000000 1.0  -3.25
Fe     4 -0.2022600000000 -0.3621190000000  0.0704370000000 1.0  -2.76
Fe     4  0.2022600000000 -0.3621190000000 -0.0704370000000 1.0  -2.76
Fe     4 -0.2977400000000  0.1378810000000  0.0704370000000 1.0  -2.76
Fe     4  0.2977400000000  0.1378810000000 -0.0704370000000 1.0  -2.76
END
