TITL LFSO-Li3Fe3S2O4-200929-023521-fff7f8 -0.0546 482.400966 -1.10943492E+004 2.13118 15.6157 24 (I222) n - 1
REM
REM Run started: Wed, 30 Sep 2020 13:25:57 +0100 in /lustre/scratch/uccabz1/launch_tmp/launcher_2020-09-29-01-35-18-829069
REM CASTEP 20.1 from code version af48c487+ pr-geom-scf-spinfix Tue Jun 2 15:39:59 2020 +0100
REM Functional Perdew Burke Ernzerhof Relativity Koelling-Harmon Dispersion off
REM Cut-off 340.0000 eV Grid scale 1.7500 Gmax 16.5316 1/A FBSC none
REM MP grid 2 3 3 Offset 0.000 0.000 0.000 No. kpts 6 Spacing 0.07
REM Total runtime: 135059 s
REM Overall efficiency: 93.6667 %
REM
REM
REM
REM compiler GCC version 4.9.2
REM options -cpp -iprefix /lustre/shared/ucl/apps/gcc/4.9.2/bin/../lib/gcc/x86_64-unknown-linux-gnu/4.9.2/ -mtune=corei7 -march=x86-64 -g -Og
REM COMMAND_LINE
REM seed 403565625 222108863 548804655 -1458765159 -1306278446 -606072585 -2135128779 1126680458 -8607550 -1229966247 1995987648 1154023707
REM
REM S 3|1.8|5|6|7|30:31:32(qc=5)
REM O 2|1.5|12|13|15|20:21(qc=5)
REM Li 1|1.3|8|9|10|10U:20(qc=5)
REM Fe 3|2.2|2.0|1.0|8|9|10|40:41:32(qc=5)
REM 
CELL 1.54180   10.28869    8.63284    8.63284   60.20884   53.42294   53.42294
LATT -1
SFAC Li O  S  Fe 
Li     1 -0.0288030000000 -0.0546120000000  0.3526500000000 1.0  -0.00
Li     1 -0.2692360000000  0.3526500000000 -0.0546120000000 1.0  -0.00
Li     1  0.0288030000000 -0.3526500000000  0.0546120000000 1.0  -0.00
Li     1  0.2692360000000  0.0546120000000 -0.3526500000000 1.0  -0.00
Li     1 -0.2607640000000 -0.2392360000000 -0.2392360000000 1.0  -0.01
Li     1  0.2607640000000  0.2392360000000  0.2392360000000 1.0  -0.01
O      2  0.1826610000000  0.0863120000000 -0.5128160000000 1.0   0.13
O      2  0.2438430000000 -0.5128160000000  0.0863120000000 1.0   0.13
O      2 -0.1826610000000  0.5128160000000 -0.0863120000000 1.0   0.13
O      2 -0.2438430000000 -0.0863120000000  0.5128160000000 1.0   0.13
O      2 -0.1756670000000  0.1790150000000 -0.2005780000000 1.0   0.15
O      2  0.1972300000000 -0.2005780000000  0.1790150000000 1.0   0.15
O      2  0.1756670000000  0.2005780000000 -0.1790150000000 1.0   0.15
O      2 -0.1972300000000 -0.1790150000000  0.2005780000000 1.0   0.15
S      3 -0.1216210000000  0.3013010000000  0.3397500000000 1.0   0.01
S      3 -0.5194300000000  0.3397500000000  0.3013010000000 1.0   0.01
S      3  0.1216210000000 -0.3397500000000 -0.3013010000000 1.0   0.01
S      3  0.5194300000000 -0.3013010000000 -0.3397500000000 1.0   0.01
Fe     4  0.3071650000000 -0.4301280000000  0.1612030000000 1.0   1.77
Fe     4 -0.0382400000000  0.1612030000000 -0.4301280000000 1.0   1.77
Fe     4 -0.3071650000000 -0.1612030000000  0.4301280000000 1.0   1.77
Fe     4  0.0382400000000  0.4301280000000 -0.1612030000000 1.0   1.77
Fe     4  0.3903590000000 -0.3903590000000 -0.3903590000000 1.0  -3.04
Fe     4 -0.3903590000000  0.3903590000000  0.3903590000000 1.0  -3.04
END
