TITL LFSO-Li6FeS3O-200910-023856-bdbd82 0.0610 341.917258 -3411.190224958 3.99894 4.11167 11 (P2) n - 1
REM
REM Run started: Thu, 10 Sep 2020 10:07:10 +0100 in /lustre/scratch/uccabz1/launch_tmp/launcher_2020-09-10-01-38-54-492859
REM CASTEP 20.1 from code version af48c487+ pr-geom-scf-spinfix Tue Jun 2 15:39:59 2020 +0100
REM Functional Perdew Burke Ernzerhof Relativity Koelling-Harmon Dispersion off
REM Cut-off 340.0000 eV Grid scale 1.7500 Gmax 16.5316 1/A FBSC none
REM MP grid 3 6 2 Offset 0.000 0.000 0.000 No. kpts 12 Spacing 0.07
REM Total runtime: 26881 s
REM Overall efficiency: 87.4167 %
REM
REM
REM
REM compiler GCC version 4.9.2
REM options -cpp -iprefix /lustre/shared/ucl/apps/gcc/4.9.2/bin/../lib/gcc/x86_64-unknown-linux-gnu/4.9.2/ -mtune=corei7 -march=x86-64 -g -Og
REM COMMAND_LINE
REM seed -1275625078 -787092261 1962425687 1624965680 233345708 -1621033887 1407959981 95986298 992212088 1169675120 696205359 828833943
REM
REM S 3|1.8|5|6|7|30:31:32(qc=5)
REM O 2|1.5|12|13|15|20:21(qc=5)
REM Li 1|1.3|8|9|10|10U:20(qc=5)
REM Fe 3|2.2|2.0|1.0|8|9|10|40:41:32(qc=5)
REM 
CELL 1.54180    6.49416    3.84085   21.20603  139.72818   90.00000   90.00000
LATT -1
SFAC Li O  S  Fe 
Li     1  0.5979110000000  0.0752730000000 -0.4221550000000 1.0   0.03
Li     1  0.5979110000000 -0.0752730000000  0.4221550000000 1.0   0.03
Li     1 -0.1266260000000  0.2079870000000 -0.6505740000000 1.0  -0.06
Li     1 -0.1266260000000 -0.2079870000000  0.6505740000000 1.0  -0.06
Li     1 -0.3408040000000 -0.4332170000000  0.1921440000000 1.0  -0.00
Li     1 -0.3408040000000  0.4332170000000 -0.1921440000000 1.0  -0.00
O      2 -0.2010190000000 -0.0000000000000  0.5000000000000 1.0   0.28
S      3 -0.2553610000000 -0.3711980000000 -0.2657500000000 1.0   0.01
S      3 -0.2553610000000  0.3711980000000  0.2657500000000 1.0   0.01
S      3  0.2771860000000 -0.5000000000000 -0.5000000000000 1.0   0.22
Fe     4  0.0793710000000 -0.0000000000000 -0.5000000000000 1.0   3.55
END
