TITL LFSO-LiFe3S3O2-200909-151303-87657d -0.0796 113.079811 -4.57740912E+003 -6.79237 7.15959 9 (R3m) n - 1
REM
REM Run started: Wed, 09 Sep 2020 16:13:43 +0100 in /lustre/scratch/uccabz1/launch_tmp/launcher_2020-09-09-14-13-01-880344
REM CASTEP 20.1 from code version af48c487+ pr-geom-scf-spinfix Tue Jun 2 15:39:59 2020 +0100
REM Functional Perdew Burke Ernzerhof Relativity Koelling-Harmon Dispersion off
REM Cut-off 340.0000 eV Grid scale 1.7500 Gmax 16.5316 1/A FBSC none
REM MP grid 3 3 3 Offset 0.000 0.000 0.000 No. kpts 6 Spacing 0.07
REM Total runtime: 4037.38 s
REM Overall efficiency: 94.75 %
REM
REM
REM
REM compiler GCC version 4.9.2
REM options -cpp -iprefix /lustre/shared/ucl/apps/gcc/4.9.2/bin/../lib/gcc/x86_64-unknown-linux-gnu/4.9.2/ -mtune=corei7 -march=x86-64 -g -Og
REM COMMAND_LINE
REM seed 1120296900 -239390304 -1991326382 255457596 -324687458 -310008169 -858554304 693144653 -1656260422 1077059179 1102127203 319011272
REM
REM S 3|1.8|5|6|7|30:31:32(qc=5)
REM O 2|1.5|12|13|15|20:21(qc=5)
REM Li 1|1.3|8|9|10|10U:20(qc=5)
REM Fe 3|2.2|2.0|1.0|8|9|10|40:41:32(qc=5)
REM 
CELL 1.54180    4.93435    4.93435    4.93435   77.85917   77.85917   77.85917
LATT -1
SFAC Li O  S  Fe 
Li     1  0.1977890000000  0.1977890000000  0.1977890000000 1.0   0.04
O      2 -0.4253280000000 -0.4253280000000 -0.4253280000000 1.0  -0.17
O      2 -0.1935720000000 -0.1935720000000 -0.1935720000000 1.0  -0.20
S      3 -0.3033270000000  0.1917290000000  0.1913680000000 1.0  -0.00
S      3  0.1917290000000  0.1913680000000 -0.3033270000000 1.0  -0.00
S      3  0.1913680000000 -0.3033270000000  0.1917290000000 1.0  -0.00
Fe     4  0.6856370000000  0.1887960000000 -0.3139050000000 1.0  -2.15
Fe     4  0.1887960000000 -0.3139050000000  0.6856370000000 1.0  -2.15
Fe     4 -0.3139050000000  0.6856370000000  0.1887960000000 1.0  -2.15
END
