TITL LFSO-Li2Fe3SO3-200912-171412-e07f6d -0.0776 220.991377 -9.21718943E+003 15.3237 15.8048 18 (P-1) n - 1
REM
REM Run started: Sun, 13 Sep 2020 22:55:13 +0100 in /lustre/scratch/uccabz1/launch_tmp/launcher_2020-09-12-16-14-10-524270
REM CASTEP 20.1 from code version af48c487+ pr-geom-scf-spinfix Tue Jun 2 15:39:59 2020 +0100
REM Functional Perdew Burke Ernzerhof Relativity Koelling-Harmon Dispersion off
REM Cut-off 340.0000 eV Grid scale 1.7500 Gmax 16.5316 1/A FBSC none
REM MP grid 5 3 2 Offset 0.000 0.000 0.000 No. kpts 15 Spacing 0.07
REM Total runtime: 98675.6 s
REM Overall efficiency: 98.4615 %
REM
REM
REM
REM compiler GCC version 4.9.2
REM options -cpp -iprefix /lustre/shared/ucl/apps/gcc/4.9.2/bin/../lib/gcc/x86_64-unknown-linux-gnu/4.9.2/ -mtune=corei7 -march=x86-64 -g -Og
REM COMMAND_LINE
REM seed -1891814617 -238718376 -434650341 -1859667066 -1947187424 1902586123 342695992 -1505408526 352513307 -1236677428 -837291556 840284538
REM
REM S 3|1.8|5|6|7|30:31:32(qc=5)
REM O 2|1.5|12|13|15|20:21(qc=5)
REM Li 1|1.3|8|9|10|10U:20(qc=5)
REM Fe 3|2.2|2.0|1.0|8|9|10|40:41:32(qc=5)
REM 
CELL 1.54180    3.40149    6.12865   10.83176   99.59732   86.67603   96.60981
LATT -1
SFAC Li O  S  Fe 
Li     1 -0.1386490000000  0.1221740000000  0.4072450000000 1.0  -0.01
Li     1  0.1386490000000 -0.1221740000000 -0.4072450000000 1.0  -0.01
Li     1  0.2008630000000 -0.4351150000000  0.0936880000000 1.0  -0.04
Li     1 -0.2008630000000  0.4351150000000 -0.0936880000000 1.0  -0.04
O      2  0.3979220000000  0.2970380000000 -0.5473380000000 1.0   0.18
O      2 -0.3979220000000 -0.2970380000000  0.5473380000000 1.0   0.18
O      2  0.6911960000000 -0.1897490000000  0.3113080000000 1.0   0.24
O      2 -0.6911960000000  0.1897490000000 -0.3113080000000 1.0   0.24
O      2 -0.2618740000000 -0.3285310000000  0.0525240000000 1.0   0.09
O      2  0.2618740000000  0.3285310000000 -0.0525240000000 1.0   0.09
S      3  0.2188930000000 -0.2982360000000 -0.2062490000000 1.0   0.04
S      3 -0.2188930000000  0.2982360000000  0.2062490000000 1.0   0.04
Fe     4 -0.2910330000000 -0.1420000000000 -0.0686500000000 1.0   2.36
Fe     4  0.2910330000000  0.1420000000000  0.0686500000000 1.0   2.36
Fe     4  0.2542260000000  0.0719980000000 -0.1610890000000 1.0   2.03
Fe     4 -0.2542260000000 -0.0719980000000  0.1610890000000 1.0   2.03
Fe     4 -0.5846550000000 -0.5575700000000 -0.3821100000000 1.0   2.75
Fe     4  0.5846550000000  0.5575700000000  0.3821100000000 1.0   2.75
END
