TITL LFSO-Li3Fe3S4O2-200929-005801-883cbb -0.0297 399.427793 -1.05639926E+004 22.8954 23.0750 24 (Pc) n - 1
REM
REM Run started: Wed, 30 Sep 2020 13:27:13 +0100 in /lustre/scratch/uccabz1/launch_tmp/launcher_2020-09-28-23-57-59-502805
REM CASTEP 20.1 from code version af48c487+ pr-geom-scf-spinfix Tue Jun 2 15:39:59 2020 +0100
REM Functional Perdew Burke Ernzerhof Relativity Koelling-Harmon Dispersion off
REM Cut-off 340.0000 eV Grid scale 1.7500 Gmax 16.5316 1/A FBSC none
REM MP grid 5 2 2 Offset 0.000 0.000 0.000 No. kpts 6 Spacing 0.07
REM Total runtime: 139040 s
REM Overall efficiency: 98.6923 %
REM
REM
REM
REM compiler GCC version 4.9.2
REM options -cpp -iprefix /lustre/shared/ucl/apps/gcc/4.9.2/bin/../lib/gcc/x86_64-unknown-linux-gnu/4.9.2/ -mtune=corei7 -march=x86-64 -g -Og
REM COMMAND_LINE
REM seed 855317357 1887039865 -1597477202 -270096727 -247658124 1864517771 -1431063906 530406693 949354526 2035182740 1906263398 -1962974408
REM
REM S 3|1.8|5|6|7|30:31:32(qc=5)
REM O 2|1.5|12|13|15|20:21(qc=5)
REM Li 1|1.3|8|9|10|10U:20(qc=5)
REM Fe 3|2.2|2.0|1.0|8|9|10|40:41:32(qc=5)
REM 
CELL 1.54180    3.43502   10.78533   11.15613   75.10756   90.00000   90.00000
LATT -1
SFAC Li O  S  Fe 
Li     1  0.0278590000000  0.5398190000000 -0.0012400000000 1.0   0.01
Li     1 -0.0278590000000  0.5398190000000 -0.5012400000000 1.0   0.01
Li     1  0.4744610000000 -0.1429320000000  0.2736700000000 1.0  -0.04
Li     1 -0.4744610000000 -0.1429320000000 -0.2263300000000 1.0  -0.04
Li     1 -0.0848710000000  0.0848260000000  0.2606260000000 1.0   0.03
Li     1  0.0848710000000  0.0848260000000 -0.2393740000000 1.0   0.03
O      2  0.0205460000000 -0.0956880000000 -0.1747670000000 1.0   0.35
O      2 -0.0205460000000 -0.0956880000000  0.3252330000000 1.0   0.35
O      2  0.0204450000000 -0.4781930000000 -0.1616490000000 1.0   0.33
O      2 -0.0204450000000 -0.4781930000000  0.3383510000000 1.0   0.33
S      3  0.1920340000000  0.0615580000000 -0.4563170000000 1.0   0.14
S      3 -0.1920340000000  0.0615580000000  0.0436830000000 1.0   0.14
S      3 -0.3811440000000  0.1872910000000 -0.1233510000000 1.0   0.11
S      3  0.3811440000000  0.1872910000000  0.3766490000000 1.0   0.11
S      3 -0.5337930000000 -0.2645160000000  0.0872270000000 1.0   0.18
S      3  0.5337930000000 -0.2645160000000 -0.4127730000000 1.0   0.18
S      3 -0.4727820000000  0.3916420000000  0.1296570000000 1.0   0.22
S      3  0.4727820000000  0.3916420000000 -0.3703430000000 1.0   0.22
Fe     4  0.0295260000000 -0.1275490000000  0.4927320000000 1.0   3.52
Fe     4 -0.0295260000000 -0.1275490000000 -0.0072680000000 1.0   3.52
Fe     4  0.0218660000000  0.3617710000000  0.2755330000000 1.0   3.11
Fe     4 -0.0218660000000  0.3617710000000 -0.2244670000000 1.0   3.11
Fe     4  0.4822460000000 -0.4523590000000  0.2481020000000 1.0   3.50
Fe     4 -0.4822460000000 -0.4523590000000 -0.2518980000000 1.0   3.50
END
