TITL LFSO-Li4Fe3S3O2-200927-083709-2823c9 0.1038 386.168467 -1.03553578E+004 -23.6726 23.8850 24 (P3) n - 1
REM
REM Run started: Mon, 28 Sep 2020 16:57:47 +0100 in /lustre/scratch/uccabz1/launch_tmp/launcher_2020-09-27-07-37-07-105229
REM CASTEP 20.1 from code version af48c487+ pr-geom-scf-spinfix Tue Jun 2 15:39:59 2020 +0100
REM Functional Perdew Burke Ernzerhof Relativity Koelling-Harmon Dispersion off
REM Cut-off 340.0000 eV Grid scale 1.7500 Gmax 16.5316 1/A FBSC none
REM MP grid 3 3 2 Offset 0.000 0.000 0.000 No. kpts 5 Spacing 0.07
REM Total runtime: 75712.1 s
REM Overall efficiency: 73.9231 %
REM
REM
REM
REM compiler GCC version 4.9.2
REM options -cpp -iprefix /lustre/shared/ucl/apps/gcc/4.9.2/bin/../lib/gcc/x86_64-unknown-linux-gnu/4.9.2/ -mtune=corei7 -march=x86-64 -g -Og
REM COMMAND_LINE
REM seed -899232858 -967140023 367695355 -191377202 1121416174 148942799 1088454179 1203589370 -349307874 -1193045215 580624634 -403529064
REM
REM S 3|1.8|5|6|7|30:31:32(qc=5)
REM O 2|1.5|12|13|15|20:21(qc=5)
REM Li 1|1.3|8|9|10|10U:20(qc=5)
REM Fe 3|2.2|2.0|1.0|8|9|10|40:41:32(qc=5)
REM 
CELL 1.54180    6.81304    6.81304    9.60648   90.00000   90.00000  120.00000
LATT -1
SFAC Li O  S  Fe 
Li     1 -0.0908020000000  0.3768870000000 -0.3253510000000 1.0   0.01
Li     1  0.4676890000000  0.0908020000000 -0.3253510000000 1.0   0.01
Li     1 -0.3768870000000 -0.4676890000000 -0.3253510000000 1.0   0.01
Li     1  0.3382520000000 -0.0006180000000  0.1500020000000 1.0   0.07
Li     1 -0.3388700000000 -0.3382520000000  0.1500020000000 1.0   0.07
Li     1  0.0006180000000  0.3388700000000  0.1500020000000 1.0   0.07
Li     1  0.3333330000000 -0.3333330000000 -0.4112990000000 1.0  -0.01
Li     1 -0.0000000000000  0.0000000000000 -0.3053600000000 1.0   0.04
O      2 -0.2577910000000  0.0806130000000 -0.2682210000000 1.0  -0.32
O      2  0.3384040000000  0.2577910000000 -0.2682210000000 1.0  -0.32
O      2 -0.0806130000000 -0.3384040000000 -0.2682210000000 1.0  -0.32
O      2  0.3333330000000 -0.3333330000000 -0.1998560000000 1.0  -0.34
S      3 -0.3278650000000  0.0005300000000  0.1150920000000 1.0  -0.23
S      3  0.3283950000000  0.3278650000000  0.1150920000000 1.0  -0.23
S      3 -0.0005300000000 -0.3283950000000  0.1150920000000 1.0  -0.23
S      3  0.3366540000000 -0.0088880000000  0.4311310000000 1.0  -0.23
S      3 -0.3455420000000 -0.3366540000000  0.4311310000000 1.0  -0.23
S      3  0.0088880000000  0.3455420000000  0.4311310000000 1.0  -0.23
Fe     4 -0.0050640000000 -0.3295260000000  0.3584660000000 1.0  -3.54
Fe     4 -0.3244610000000  0.0050640000000  0.3584660000000 1.0  -3.54
Fe     4  0.3295260000000  0.3244610000000  0.3584660000000 1.0  -3.54
Fe     4 -0.3958760000000 -0.0821510000000 -0.1132710000000 1.0  -3.56
Fe     4  0.3137250000000  0.3958760000000 -0.1132710000000 1.0  -3.56
Fe     4  0.0821510000000 -0.3137250000000 -0.1132710000000 1.0  -3.56
END
