TITL LFSO-Li2Fe3S3O-200912-184957-227a6c -0.0007 500.157649 -8.67644519E+003 17.8038 18.3204 18 (Amm2) n - 1
REM
REM Run started: Sun, 13 Sep 2020 14:33:41 +0100 in /lustre/scratch/uccabz1/launch_tmp/launcher_2020-09-12-17-49-55-539432
REM CASTEP 20.1 from code version af48c487+ pr-geom-scf-spinfix Tue Jun 2 15:39:59 2020 +0100
REM Functional Perdew Burke Ernzerhof Relativity Koelling-Harmon Dispersion off
REM Cut-off 340.0000 eV Grid scale 1.7500 Gmax 16.5316 1/A FBSC none
REM MP grid 3 3 1 Offset 0.000 0.000 0.000 No. kpts 4 Spacing 0.07
REM Total runtime: 71222.6 s
REM Overall efficiency: 98 %
REM
REM
REM
REM compiler GCC version 4.9.2
REM options -cpp -iprefix /lustre/shared/ucl/apps/gcc/4.9.2/bin/../lib/gcc/x86_64-unknown-linux-gnu/4.9.2/ -mtune=corei7 -march=x86-64 -g -Og
REM COMMAND_LINE
REM seed 476798779 -378573715 81108622 46403742 -721508081 -759051734 197269858 -243125149 368267791 -480224677 1210099344 1885373079
REM
REM S 3|1.8|5|6|7|30:31:32(qc=5)
REM O 2|1.5|12|13|15|20:21(qc=5)
REM Li 1|1.3|8|9|10|10U:20(qc=5)
REM Fe 3|2.2|2.0|1.0|8|9|10|40:41:32(qc=5)
REM 
CELL 1.54180    5.76905    5.76905   16.00831   90.00000   90.00000  110.15624
LATT -1
SFAC Li O  S  Fe 
Li     1 -0.2925460000000 -0.2576170000000 -0.1995260000000 1.0  -0.01
Li     1  0.2576170000000  0.2925460000000  0.1995260000000 1.0  -0.01
Li     1  0.2576170000000  0.2925460000000 -0.1995260000000 1.0  -0.01
Li     1 -0.2925460000000 -0.2576170000000  0.1995260000000 1.0  -0.01
O      2 -0.5230500000000 -0.4769500000000 -0.1165610000000 1.0   0.17
O      2 -0.5230500000000 -0.4769500000000  0.1165610000000 1.0   0.17
S      3  0.0604590000000 -0.3813920000000  0.2156540000000 1.0   0.07
S      3  0.3813920000000 -0.0604590000000 -0.2156540000000 1.0   0.07
S      3  0.3813920000000 -0.0604590000000  0.2156540000000 1.0   0.07
S      3  0.0604590000000 -0.3813920000000 -0.2156540000000 1.0   0.07
S      3 -0.1028490000000  0.1028490000000  0.1023920000000 1.0   0.20
S      3 -0.1028490000000  0.1028490000000 -0.1023920000000 1.0   0.20
Fe     4 -0.8712470000000 -0.4893610000000 -0.0767310000000 1.0   2.76
Fe     4 -0.5106390000000 -0.1287530000000  0.0767310000000 1.0   2.76
Fe     4 -0.5106390000000 -0.1287530000000 -0.0767310000000 1.0   2.76
Fe     4 -0.8712470000000 -0.4893610000000  0.0767310000000 1.0   2.76
Fe     4  0.6652440000000  0.3347560000000 -0.0784210000000 1.0   2.90
Fe     4  0.6652440000000  0.3347560000000  0.0784210000000 1.0   2.90
END
