TITL LFSO-LiFe3S4O-200909-075605-b39c2c 0.0266 172.503509 -4.44270105E+003 8.80495 8.99927 9 (R3) n - 1
REM
REM Run started: Wed, 09 Sep 2020 09:07:34 +0100 in /lustre/scratch/uccabz1/launch_tmp/launcher_2020-09-09-06-56-04-080993
REM CASTEP 20.1 from code version af48c487+ pr-geom-scf-spinfix Tue Jun 2 15:39:59 2020 +0100
REM Functional Perdew Burke Ernzerhof Relativity Koelling-Harmon Dispersion off
REM Cut-off 340.0000 eV Grid scale 1.7500 Gmax 16.5316 1/A FBSC none
REM MP grid 3 3 3 Offset 0.000 0.000 0.000 No. kpts 6 Spacing 0.07
REM Total runtime: 4327.92 s
REM Overall efficiency: 92.25 %
REM
REM
REM
REM compiler GCC version 4.9.2
REM options -cpp -iprefix /lustre/shared/ucl/apps/gcc/4.9.2/bin/../lib/gcc/x86_64-unknown-linux-gnu/4.9.2/ -mtune=corei7 -march=x86-64 -g -Og
REM COMMAND_LINE
REM seed -1525171690 -1595369687 -324795621 1390949557 -1995706821 -725101475 528218531 -405075786 -1818054327 668970508 559923612 2130081133
REM
REM S 3|1.8|5|6|7|30:31:32(qc=5)
REM O 2|1.5|12|13|15|20:21(qc=5)
REM Li 1|1.3|8|9|10|10U:20(qc=5)
REM Fe 3|2.2|2.0|1.0|8|9|10|40:41:32(qc=5)
REM 
CELL 1.54180    5.71952    5.71952    5.71952   75.85560   75.85560   75.85560
LATT -1
SFAC Li O  S  Fe 
Li     1  0.0174240000000  0.0174240000000  0.0174240000000 1.0  -0.06
O      2 -0.1417830000000 -0.1417830000000 -0.1417830000000 1.0   0.20
S      3 -0.0670120000000  0.3854000000000 -0.2992870000000 1.0   0.27
S      3 -0.2992870000000 -0.0670120000000  0.3854000000000 1.0   0.27
S      3  0.3854000000000 -0.2992870000000 -0.0670120000000 1.0   0.27
S      3  0.2117160000000  0.2117160000000  0.2117160000000 1.0   0.07
Fe     4  0.0671040000000 -0.4538630000000 -0.0619890000000 1.0   2.59
Fe     4 -0.0619890000000  0.0671040000000 -0.4538630000000 1.0   2.59
Fe     4 -0.4538630000000 -0.0619890000000  0.0671040000000 1.0   2.59
END
