TITL LFSO-Li3Fe3SO5-200926-110853-97464c -0.0177 136.382697 -5.68455862E+003 10.3226 10.3918 12 (P2) n - 1
REM
REM Run started: Sat, 26 Sep 2020 15:06:18 +0100 in /lustre/scratch/uccabz1/launch_tmp/launcher_2020-09-26-10-08-51-631474
REM CASTEP 20.1 from code version af48c487+ pr-geom-scf-spinfix Tue Jun 2 15:39:59 2020 +0100
REM Functional Perdew Burke Ernzerhof Relativity Koelling-Harmon Dispersion off
REM Cut-off 340.0000 eV Grid scale 1.7500 Gmax 16.5316 1/A FBSC none
REM MP grid 6 3 2 Offset 0.000 0.000 0.000 No. kpts 12 Spacing 0.07
REM Total runtime: 14431.8 s
REM Overall efficiency: 82.0769 %
REM
REM
REM
REM compiler GCC version 4.9.2
REM options -cpp -iprefix /lustre/shared/ucl/apps/gcc/4.9.2/bin/../lib/gcc/x86_64-unknown-linux-gnu/4.9.2/ -mtune=corei7 -march=x86-64 -g -Og
REM COMMAND_LINE
REM seed 1829484600 1699895092 1275603057 1704922947 826618349 1935786518 -448960482 -1117535371 -18844729 1921908926 -591347959 293361669
REM
REM S 3|1.8|5|6|7|30:31:32(qc=5)
REM O 2|1.5|12|13|15|20:21(qc=5)
REM Li 1|1.3|8|9|10|10U:20(qc=5)
REM Fe 3|2.2|2.0|1.0|8|9|10|40:41:32(qc=5)
REM 
CELL 1.54180    2.78687    5.15932    9.95218   90.00000   72.38021   90.00000
LATT -1
SFAC Li O  S  Fe 
Li     1 -0.2980430000000  0.2148370000000  0.3083500000000 1.0  -0.02
Li     1  0.2980430000000  0.2148370000000 -0.3083500000000 1.0  -0.02
Li     1 -0.5000000000000 -0.2164310000000  0.5000000000000 1.0  -0.02
O      2 -0.1462360000000  0.4384930000000  0.1520480000000 1.0   0.17
O      2  0.1462360000000  0.4384930000000 -0.1520480000000 1.0   0.17
O      2  0.2854750000000 -0.1397200000000 -0.2867900000000 1.0   0.14
O      2 -0.2854750000000 -0.1397200000000  0.2867900000000 1.0   0.14
O      2 -0.5000000000000 -0.0879590000000 -0.0000000000000 1.0   0.49
S      3  0.0000000000000  0.3721450000000 -0.5000000000000 1.0   0.04
Fe     4  0.3149700000000 -0.3136710000000  0.1893700000000 1.0   2.78
Fe     4 -0.3149700000000 -0.3136710000000 -0.1893700000000 1.0   2.78
Fe     4  0.0000000000000  0.1858070000000 -0.0000000000000 1.0   3.67
END
