TITL LFSO-Li2Fe3S3O-200912-204413-5ebace -0.0298 131.850798 -4.34149142E+003 7.97575 8.29758 9 (Cm) n - 1
REM
REM Run started: Sun, 13 Sep 2020 00:32:27 +0100 in /lustre/scratch/uccabz1/launch_tmp/launcher_2020-09-12-19-44-11-260385
REM CASTEP 20.1 from code version af48c487+ pr-geom-scf-spinfix Tue Jun 2 15:39:59 2020 +0100
REM Functional Perdew Burke Ernzerhof Relativity Koelling-Harmon Dispersion off
REM Cut-off 340.0000 eV Grid scale 1.7500 Gmax 16.5316 1/A FBSC none
REM MP grid 5 3 3 Offset 0.000 0.000 0.000 No. kpts 16 Spacing 0.07
REM Total runtime: 14963.2 s
REM Overall efficiency: 96.5833 %
REM
REM
REM
REM compiler GCC version 4.9.2
REM options -cpp -iprefix /lustre/shared/ucl/apps/gcc/4.9.2/bin/../lib/gcc/x86_64-unknown-linux-gnu/4.9.2/ -mtune=corei7 -march=x86-64 -g -Og
REM COMMAND_LINE
REM seed 1177405567 -2023337589 -1546708078 19466868 1016123027 1651087816 1912116876 434333760 -198868307 1612625615 849905478 -1532886272
REM
REM S 3|1.8|5|6|7|30:31:32(qc=5)
REM O 2|1.5|12|13|15|20:21(qc=5)
REM Li 1|1.3|8|9|10|10U:20(qc=5)
REM Fe 3|2.2|2.0|1.0|8|9|10|40:41:32(qc=5)
REM 
CELL 1.54180    3.22898    6.85521    6.85521  110.07493  102.56652  102.56652
LATT -1
SFAC Li O  S  Fe 
Li     1 -0.1801400000000 -0.0827070000000  0.7002460000000 1.0   0.01
Li     1 -0.1801400000000  0.7002460000000 -0.0827070000000 1.0   0.01
O      2 -0.6607570000000 -0.1611810000000 -0.1611810000000 1.0   0.19
S      3  0.5176650000000 -0.1077320000000  0.3203810000000 1.0   0.07
S      3  0.5176650000000  0.3203810000000 -0.1077320000000 1.0   0.07
S      3 -0.1859230000000 -0.5792000000000 -0.5792000000000 1.0   0.00
Fe     4  0.1820540000000  0.1561590000000  0.3978760000000 1.0   2.53
Fe     4  0.1820540000000  0.3978760000000  0.1561590000000 1.0   2.53
Fe     4 -0.4754080000000  0.0897080000000  0.0897080000000 1.0   2.57
END
