TITL LFSO-Li4Fe2S3O2-200911-060455-ca743e 0.0788 359.840612 -8.62592825E+003 6.52677 11.3546 22 (R3m) n - 1
REM
REM Run started: Sat, 12 Sep 2020 04:26:12 +0100 in /lustre/scratch/uccabz1/launch_tmp/launcher_2020-09-11-05-04-54-008086
REM CASTEP 20.1 from code version af48c487+ pr-geom-scf-spinfix Tue Jun 2 15:39:59 2020 +0100
REM Functional Perdew Burke Ernzerhof Relativity Koelling-Harmon Dispersion off
REM Cut-off 340.0000 eV Grid scale 1.7500 Gmax 16.5316 1/A FBSC none
REM MP grid 3 3 2 Offset 0.000 0.000 0.000 No. kpts 7 Spacing 0.07
REM Total runtime: 88945.3 s
REM Overall efficiency: 78.4615 %
REM
REM
REM
REM compiler GCC version 4.9.2
REM options -cpp -iprefix /lustre/shared/ucl/apps/gcc/4.9.2/bin/../lib/gcc/x86_64-unknown-linux-gnu/4.9.2/ -mtune=corei7 -march=x86-64 -g -Og
REM COMMAND_LINE
REM seed 996631201 1585565946 216786652 519767950 869603492 410386413 2081123583 777983393 -898940143 -12695331 546886947 66388543
REM
REM S 3|1.8|5|6|7|30:31:32(qc=5)
REM O 2|1.5|12|13|15|20:21(qc=5)
REM Li 1|1.3|8|9|10|10U:20(qc=5)
REM Fe 3|2.2|2.0|1.0|8|9|10|40:41:32(qc=5)
REM 
CELL 1.54180    6.86940    6.86940    9.65722   69.16599   69.16599   60.00000
LATT -1
SFAC Li O  S  Fe 
Li     1  0.0381980000000 -0.5963820000000  0.5200180000000 1.0   0.03
Li     1 -0.5963820000000  0.0381660000000  0.5200180000000 1.0   0.03
Li     1  0.0381660000000  0.0381980000000  0.5200180000000 1.0   0.03
Li     1  0.1965420000000 -0.4216450000000 -0.3532770000000 1.0   0.00
Li     1 -0.4216450000000 -0.4216200000000 -0.3532770000000 1.0   0.00
Li     1 -0.4216200000000  0.1965420000000 -0.3532770000000 1.0   0.00
Li     1 -0.4776990000000 -0.4776990000000  0.4330980000000 1.0  -0.00
Li     1 -0.2718580000000 -0.2718580000000 -0.1844250000000 1.0   0.02
O      2  0.3225620000000 -0.2067240000000 -0.4384400000000 1.0  -0.01
O      2 -0.2067240000000  0.3226020000000 -0.4384400000000 1.0  -0.01
O      2  0.3226020000000  0.3225620000000 -0.4384400000000 1.0  -0.01
O      2 -0.4051950000000 -0.4051950000000  0.2155840000000 1.0   0.40
S      3  0.0997430000000  0.0998520000000  0.2145880000000 1.0  -0.11
S      3  0.0998520000000 -0.4141830000000  0.2145880000000 1.0  -0.11
S      3 -0.4141830000000  0.0997430000000  0.2145880000000 1.0  -0.11
S      3 -0.4763020000000  0.5235370000000 -0.0615350000000 1.0   0.04
S      3  0.5235370000000  0.0143000000000 -0.0615350000000 1.0   0.04
S      3  0.0143000000000 -0.4763020000000 -0.0615350000000 1.0   0.04
Fe     4 -0.2250040000000 -0.2244870000000  0.0976630000000 1.0   2.73
Fe     4 -0.2244870000000  0.3518280000000  0.0976630000000 1.0   2.73
Fe     4  0.3518280000000 -0.2250040000000  0.0976630000000 1.0   2.73
Fe     4 -0.0829050000000 -0.0829050000000  0.2487140000000 1.0  -1.97
END
