TITL LFSO-Li6FeS2O2-200920-214416-5f180c -0.2656 162.508774 -3.54809296E+003 2.00002 2.37890 11 (P-1) n - 1
REM
REM Run started: Mon, 21 Sep 2020 11:38:44 +0100 in /lustre/scratch/uccabz1/launch_tmp/launcher_2020-09-20-20-44-14-794386
REM CASTEP 20.1 from code version af48c487+ pr-geom-scf-spinfix Tue Jun 2 15:39:59 2020 +0100
REM Functional Perdew Burke Ernzerhof Relativity Koelling-Harmon Dispersion off
REM Cut-off 340.0000 eV Grid scale 1.7500 Gmax 16.5316 1/A FBSC none
REM MP grid 5 6 3 Offset 0.000 0.000 0.000 No. kpts 45 Spacing 0.07
REM Total runtime: 57449 s
REM Overall efficiency: 97.9167 %
REM
REM
REM
REM compiler GCC version 4.9.2
REM options -cpp -iprefix /lustre/shared/ucl/apps/gcc/4.9.2/bin/../lib/gcc/x86_64-unknown-linux-gnu/4.9.2/ -mtune=corei7 -march=x86-64 -g -Og
REM COMMAND_LINE
REM seed 1915634251 -1604246017 446735297 -1043264500 1094925492 2112519458 1737459680 -283172267 -97384404 -374665414 -2097973388 1675959067
REM
REM S 3|1.8|5|6|7|30:31:32(qc=5)
REM O 2|1.5|12|13|15|20:21(qc=5)
REM Li 1|1.3|8|9|10|10U:20(qc=5)
REM Fe 3|2.2|2.0|1.0|8|9|10|40:41:32(qc=5)
REM 
CELL 1.54180   13.94319   11.55432    6.82039  129.74565   49.29505  168.74969
LATT -1
SFAC Li O  S  Fe 
Li     1  0.4507680000000  0.3260580000000 -0.0325520000000 1.0  -0.00
Li     1 -0.4507680000000 -0.3260580000000  0.0325520000000 1.0  -0.00
Li     1  0.6992130000000 -0.0035540000000  0.4991890000000 1.0  -0.03
Li     1 -0.6992130000000  0.0035540000000 -0.4991890000000 1.0  -0.03
Li     1 -0.1292940000000 -0.1224560000000  0.3601640000000 1.0   0.00
Li     1  0.1292940000000  0.1224560000000 -0.3601640000000 1.0   0.00
O      2 -0.5373940000000 -0.6003470000000 -0.2963680000000 1.0   0.00
O      2  0.5373940000000  0.6003470000000  0.2963680000000 1.0   0.00
S      3 -0.8266620000000 -0.4196530000000  0.1487600000000 1.0  -0.02
S      3  0.8266620000000  0.4196530000000 -0.1487600000000 1.0  -0.02
Fe     4  0.0000000000000 -0.5000000000000  0.0000000000000 1.0   2.09
END
