TITL LFSO-Li4Fe2S4O-200910-190013-8ab84f -0.0157 616.613485 -8.36104423E+003 11.9333 12.5158 22 (I212121) n - 1
REM
REM Run started: Fri, 11 Sep 2020 17:48:53 +0100 in /lustre/scratch/uccabz1/launch_tmp/launcher_2020-09-10-18-00-11-814076
REM CASTEP 20.1 from code version af48c487+ pr-geom-scf-spinfix Tue Jun 2 15:39:59 2020 +0100
REM Functional Perdew Burke Ernzerhof Relativity Koelling-Harmon Dispersion off
REM Cut-off 340.0000 eV Grid scale 1.7500 Gmax 16.5316 1/A FBSC none
REM MP grid 2 2 2 Offset 0.000 0.000 0.000 No. kpts 3 Spacing 0.07
REM Total runtime: 90349.8 s
REM Overall efficiency: 94 %
REM
REM
REM
REM compiler GCC version 4.9.2
REM options -cpp -iprefix /lustre/shared/ucl/apps/gcc/4.9.2/bin/../lib/gcc/x86_64-unknown-linux-gnu/4.9.2/ -mtune=corei7 -march=x86-64 -g -Og
REM COMMAND_LINE
REM seed 271758431 1687849433 -1026803697 -1915443078 375246590 -1667701966 532371029 -1655190400 -454789348 1504397344 -1911980915 1408553306
REM
REM S 3|1.8|5|6|7|30:31:32(qc=5)
REM O 2|1.5|12|13|15|20:21(qc=5)
REM Li 1|1.3|8|9|10|10U:20(qc=5)
REM Fe 3|2.2|2.0|1.0|8|9|10|40:41:32(qc=5)
REM 
CELL 1.54180    8.73917    9.76430    9.76430   59.77316   63.41617   63.41617
LATT -1
SFAC Li O  S  Fe 
Li     1  0.1023620000000  0.0734910000000  0.3238670000000 1.0   0.02
Li     1  0.4997200000000 -0.5734910000000  0.1761330000000 1.0   0.02
Li     1  0.3976380000000  0.1761330000000 -0.5734910000000 1.0   0.02
Li     1  0.0002800000000  0.3238670000000  0.0734910000000 1.0   0.02
Li     1 -0.5438600000000  0.2212240000000  0.0708590000000 1.0   0.04
Li     1 -0.2517760000000  0.2787760000000 -0.5708590000000 1.0   0.04
Li     1  0.0438600000000 -0.5708590000000  0.2787760000000 1.0   0.04
Li     1 -0.2482240000000  0.0708590000000  0.2212240000000 1.0   0.04
O      2 -0.4659660000000  0.2159660000000  0.2159660000000 1.0   0.02
O      2 -0.0340340000000  0.2840340000000  0.2840340000000 1.0   0.02
S      3 -0.6128800000000 -0.0365410000000  0.1182240000000 1.0   0.23
S      3  0.4688030000000 -0.4634590000000 -0.6182240000000 1.0   0.23
S      3  0.1128800000000 -0.6182240000000 -0.4634590000000 1.0   0.23
S      3  0.0311970000000  0.1182240000000 -0.0365410000000 1.0   0.23
S      3 -0.4891360000000  0.1093510000000 -0.3457150000000 1.0   0.25
S      3 -0.7255000000000  0.3906490000000 -0.1542850000000 1.0   0.25
S      3 -0.0108640000000 -0.1542850000000  0.3906490000000 1.0   0.25
S      3  0.2255000000000 -0.3457150000000  0.1093510000000 1.0   0.25
Fe     4  0.3062600000000  0.1344630000000 -0.1094870000000 1.0   2.43
Fe     4  0.3312370000000  0.3655370000000 -0.3905130000000 1.0   2.43
Fe     4  0.1937400000000 -0.3905130000000  0.3655370000000 1.0   2.43
Fe     4  0.1687630000000 -0.1094870000000  0.1344630000000 1.0   2.43
END
