TITL LFSO-LiFe3SO4-200909-015007-ce5486 0.0542 158.469489 -4.84534433E+003 8.99749 9.31360 9 (C2) n - 1
REM
REM Run started: Wed, 09 Sep 2020 04:51:58 +0100 in /lustre/scratch/uccabz1/launch_tmp/launcher_2020-09-09-00-50-05-507986
REM CASTEP 20.1 from code version af48c487+ pr-geom-scf-spinfix Tue Jun 2 15:39:59 2020 +0100
REM Functional Perdew Burke Ernzerhof Relativity Koelling-Harmon Dispersion off
REM Cut-off 340.0000 eV Grid scale 1.7500 Gmax 16.5316 1/A FBSC none
REM MP grid 4 4 3 Offset 0.000 0.000 0.000 No. kpts 24 Spacing 0.07
REM Total runtime: 13081.3 s
REM Overall efficiency: 96.875 %
REM
REM
REM
REM compiler GCC version 4.9.2
REM options -cpp -iprefix /lustre/shared/ucl/apps/gcc/4.9.2/bin/../lib/gcc/x86_64-unknown-linux-gnu/4.9.2/ -mtune=corei7 -march=x86-64 -g -Og
REM COMMAND_LINE
REM seed 672847086 -428499463 -288730758 -539822481 1710667148 1060594254 -1247247638 524256338 -1341815651 -145209500 1357711659 -674107719
REM
REM S 3|1.8|5|6|7|30:31:32(qc=5)
REM O 2|1.5|12|13|15|20:21(qc=5)
REM Li 1|1.3|8|9|10|10U:20(qc=5)
REM Fe 3|2.2|2.0|1.0|8|9|10|40:41:32(qc=5)
REM 
CELL 1.54180    5.96520    7.38172    6.19079   53.40276   65.71970   46.39212
LATT -1
SFAC Li O  S  Fe 
Li     1  0.5000000000000  0.2630720000000  0.4738560000000 1.0  -0.01
O      2  0.3032590000000 -0.3166590000000  0.2350090000000 1.0   0.25
O      2 -0.3032590000000  0.0816500000000  0.2350090000000 1.0   0.25
O      2 -0.2826570000000 -0.1423880000000 -0.2566010000000 1.0   0.23
O      2  0.2826570000000  0.3989900000000 -0.2566010000000 1.0   0.23
S      3  0.0000000000000  0.3401440000000 -0.6802880000000 1.0   0.07
Fe     4  0.4057270000000  0.2042480000000  0.0716220000000 1.0   2.65
Fe     4 -0.4057270000000 -0.2758700000000  0.0716220000000 1.0   2.65
Fe     4  0.0000000000000 -0.2459360000000  0.4918730000000 1.0   2.68
END
