TITL LFSO-Li4Fe3S2O3-200928-062217-59f00f 0.1439 694.613472 -10620.58261586 19.9728 21.2553 24 (I41) n - 1
REM
REM Run started: Wed, 30 Sep 2020 01:17:45 +0100 in /scratch/scratch/uccabz1/launch_tmp/launcher_2020-09-28-05-22-14-855238
REM CASTEP 19.11| from code version Version unavailable
REM Functional Perdew Burke Ernzerhof Relativity Koelling-Harmon Dispersion off
REM Cut-off 340.0000 eV Grid scale 1.7500 Gmax 16.5316 1/A FBSC none
REM MP grid 2 2 3 Offset 0.000 0.000 0.000 No. kpts 5 Spacing 0.07
REM Total runtime: 117058 s
REM Overall efficiency: 90.1818 %
REM
REM
REM
REM compiler GCC version 4.9.2
REM options -cpp -iprefix /scratch/UCL/applications/gcc/4.9.2/bin/../lib/gcc/x86_64-unknown-linux-gnu/4.9.2/ -mtune=corei7 -march=x86-64 -g -O2
REM COMMAND_LINE
REM seed -1785097953 -1361377857 -867905738 1676868156 -280372833 -187488393 -816398183 -1962485083 1447852166 18723311 1017673936 -19800160
REM
REM S 3|1.8|5|6|7|30:31:32(qc=5)
REM O 2|1.5|12|13|15|20:21(qc=5)
REM Li 1|1.3|8|9|10|10U:20(qc=5)
REM Fe 3|2.2|2.0|1.0|8|9|10|40:41:32(qc=5)
REM 
CELL 1.54180   11.71457   11.71457    9.70751  127.11213  127.11213   90.00000
LATT -1
SFAC Li O  S  Fe 
Li     1  0.5074260000000  0.3718470000000  0.1493030000000 1.0  -0.09
Li     1 -0.3581220000000 -0.2225440000000  0.1493030000000 1.0  -0.09
Li     1 -0.3781530000000  0.3918780000000 -0.3506970000000 1.0  -0.09
Li     1  0.0274560000000  0.2574260000000 -0.3506970000000 1.0  -0.09
Li     1 -0.1825830000000 -0.3710110000000 -0.5960180000000 1.0   0.03
Li     1 -0.4134350000000 -0.2250070000000 -0.5960180000000 1.0   0.03
Li     1 -0.1210110000000  0.3365650000000 -0.0960180000000 1.0   0.03
Li     1  0.0249930000000 -0.4325830000000 -0.0960180000000 1.0   0.03
O      2  0.4267480000000  0.2946930000000 -0.4483630000000 1.0   0.26
O      2  0.1248890000000 -0.7430560000000 -0.4483630000000 1.0   0.26
O      2  0.5446930000000 -0.1251110000000  0.0516370000000 1.0   0.26
O      2 -0.4930560000000  0.1767480000000  0.0516370000000 1.0   0.26
O      2 -0.1663050000000  0.3336950000000 -0.3326100000000 1.0   0.18
O      2 -0.4163050000000 -0.4163050000000  0.1673900000000 1.0   0.18
S      3 -0.1672910000000 -0.4440850000000  0.1163570000000 1.0   0.19
S      3  0.2836480000000  0.5604410000000  0.1163570000000 1.0   0.19
S      3 -0.1940850000000  0.0336480000000  0.6163570000000 1.0   0.19
S      3 -0.1895590000000 -0.4172910000000  0.6163570000000 1.0   0.19
Fe     4 -0.2942020000000  0.0896120000000  0.4032620000000 1.0   2.79
Fe     4 -0.3025360000000  0.3136490000000  0.4032620000000 1.0   2.79
Fe     4  0.3396120000000  0.4474640000000 -0.0967380000000 1.0   2.79
Fe     4 -0.4363510000000  0.4557980000000 -0.0967380000000 1.0   2.79
Fe     4  0.2435650000000  0.2435650000000 -0.5128710000000 1.0   3.46
Fe     4 -0.5064350000000 -0.0064350000000 -0.0128710000000 1.0   3.46
END
