TITL LFSO-Li4Fe2SO3-200910-193132-847dc6 0.0031 121.393060 -4.14421462E+003 8.00000 8.09295 10 (Fmm2) n - 1
REM
REM Run started: Thu, 10 Sep 2020 20:56:11 +0100 in /lustre/scratch/uccabz1/launch_tmp/launcher_2020-09-10-18-31-31-002858
REM CASTEP 20.1 from code version af48c487+ pr-geom-scf-spinfix Tue Jun 2 15:39:59 2020 +0100
REM Functional Perdew Burke Ernzerhof Relativity Koelling-Harmon Dispersion off
REM Cut-off 340.0000 eV Grid scale 1.7500 Gmax 16.5316 1/A FBSC none
REM MP grid 4 4 5 Offset 0.000 0.000 0.000 No. kpts 26 Spacing 0.07
REM Total runtime: 5654.96 s
REM Overall efficiency: 95.7143 %
REM
REM
REM
REM compiler GCC version 4.9.2
REM options -cpp -iprefix /lustre/shared/ucl/apps/gcc/4.9.2/bin/../lib/gcc/x86_64-unknown-linux-gnu/4.9.2/ -mtune=corei7 -march=x86-64 -g -Og
REM COMMAND_LINE
REM seed -2119413502 -1892874074 215583990 1431362048 1514665033 1649217332 957519335 -966019175 -1495095948 1497044456 1724327962 -411994714
REM
REM S 3|1.8|5|6|7|30:31:32(qc=5)
REM O 2|1.5|12|13|15|20:21(qc=5)
REM Li 1|1.3|8|9|10|10U:20(qc=5)
REM Fe 3|2.2|2.0|1.0|8|9|10|40:41:32(qc=5)
REM 
CELL 1.54180    6.01872    6.01872    4.99608  114.71326  114.71326  107.81334
LATT -1
SFAC Li O  S  Fe 
Li     1  0.4363810000000  0.1861810000000  0.0295370000000 1.0  -0.05
Li     1 -0.4068440000000 -0.1566440000000  0.0295370000000 1.0  -0.05
Li     1  0.1861810000000  0.4363810000000  0.0295370000000 1.0  -0.05
Li     1 -0.1566440000000 -0.4068440000000  0.0295370000000 1.0  -0.05
O      2  0.2312650000000 -0.2687350000000  0.4625290000000 1.0   0.28
O      2 -0.2687350000000  0.2312650000000  0.4625290000000 1.0   0.28
O      2 -0.5668650000000 -0.5668650000000 -0.1337300000000 1.0   0.24
S      3 -0.0244420000000 -0.0244420000000 -0.0488840000000 1.0   0.28
Fe     4  0.0691670000000  0.3854030000000  0.4545700000000 1.0   3.56
Fe     4  0.3854030000000  0.0691670000000  0.4545700000000 1.0   3.56
END
