TITL LFSO-Li4Fe2SO4-200910-153224-466d45 -0.0499 142.847641 -4.58027785E+003 8.20649 8.27502 11 (R3m) n - 1
REM
REM Run started: Thu, 10 Sep 2020 16:37:30 +0100 in /lustre/scratch/uccabz1/launch_tmp/launcher_2020-09-10-14-32-22-508468
REM CASTEP 20.1 from code version af48c487+ pr-geom-scf-spinfix Tue Jun 2 15:39:59 2020 +0100
REM Functional Perdew Burke Ernzerhof Relativity Koelling-Harmon Dispersion off
REM Cut-off 340.0000 eV Grid scale 1.7500 Gmax 16.5316 1/A FBSC none
REM MP grid 4 4 4 Offset 0.000 0.000 0.000 No. kpts 12 Spacing 0.07
REM Total runtime: 5300.82 s
REM Overall efficiency: 95.4286 %
REM
REM
REM
REM compiler GCC version 4.9.2
REM options -cpp -iprefix /lustre/shared/ucl/apps/gcc/4.9.2/bin/../lib/gcc/x86_64-unknown-linux-gnu/4.9.2/ -mtune=corei7 -march=x86-64 -g -Og
REM COMMAND_LINE
REM seed 529520124 721894766 1553378757 882664483 1812389369 1322923218 -1607196318 -1161436449 911907271 633466119 993770893 1142967654
REM
REM S 3|1.8|5|6|7|30:31:32(qc=5)
REM O 2|1.5|12|13|15|20:21(qc=5)
REM Li 1|1.3|8|9|10|10U:20(qc=5)
REM Fe 3|2.2|2.0|1.0|8|9|10|40:41:32(qc=5)
REM 
CELL 1.54180    6.00692    6.00692    6.00692   57.05175   57.05175   57.05175
LATT -1
SFAC Li O  S  Fe 
Li     1 -0.5174040000000 -0.0722950000000  0.4826300000000 1.0  -0.02
Li     1 -0.0722950000000  0.4826300000000 -0.5174040000000 1.0  -0.02
Li     1  0.4826300000000 -0.5174040000000 -0.0722950000000 1.0  -0.02
Li     1  0.4348910000000  0.4348910000000  0.4348910000000 1.0   0.01
O      2  0.1648230000000 -0.3096030000000  0.1648490000000 1.0   0.33
O      2 -0.3096030000000  0.1648490000000  0.1648230000000 1.0   0.33
O      2  0.1648490000000  0.1648230000000 -0.3096030000000 1.0   0.33
O      2 -0.4418960000000 -0.4418960000000 -0.4418960000000 1.0   0.16
S      3 -0.2131780000000 -0.2131780000000 -0.2131780000000 1.0   0.11
Fe     4  0.0792960000000  0.0792960000000  0.0792960000000 1.0   3.66
Fe     4 -0.0727780000000 -0.0727780000000 -0.0727780000000 1.0   3.36
END
