TITL LFSO-Li3Fe3S4O2-200929-210641-f53167 -0.0757 407.724413 -1.05584743E+004 14.3539 16.5741 24 (R3) n - 1
REM
REM Run started: Wed, 30 Sep 2020 13:32:32 +0100 in /lustre/scratch/uccabz1/launch_tmp/launcher_2020-09-30-05-58-32-582326
REM CASTEP 20.1 from code version af48c487+ pr-geom-scf-spinfix Tue Jun 2 15:39:59 2020 +0100
REM Functional Perdew Burke Ernzerhof Relativity Koelling-Harmon Dispersion off
REM Cut-off 340.0000 eV Grid scale 1.7500 Gmax 16.5316 1/A FBSC none
REM MP grid 3 3 3 Offset 0.000 0.000 0.000 No. kpts 6 Spacing 0.07
REM Total runtime: 39753 s
REM Overall efficiency: 94.5385 %
REM
REM
REM
REM compiler GCC version 4.9.2
REM options -cpp -iprefix /scratch/UCL/applications/gcc/4.9.2/bin/../lib/gcc/x86_64-unknown-linux-gnu/4.9.2/ -mtune=corei7 -march=x86-64 -g -O2
REM COMMAND_LINE
REM seed 892936085 2060419435 1093791470 1622723280 -1707389520 -1755000984 -1884700095 738795492 -636347979 1416187723 307452278 110883595
REM
REM S 3|1.8|5|6|7|30:31:32(qc=5)
REM O 2|1.5|12|13|15|20:21(qc=5)
REM Li 1|1.3|8|9|10|10U:20(qc=5)
REM Fe 3|2.2|2.0|1.0|8|9|10|40:41:32(qc=5)
REM 
CELL 1.54180    8.61861    8.61861    8.05805   57.67081   57.67081   60.00000
LATT -1
SFAC Li O  S  Fe 
Li     1 -0.1472420000000  0.5258190000000 -0.4047270000000 1.0   0.00
Li     1  0.0261480000000 -0.1472420000000 -0.4047270000000 1.0   0.00
Li     1  0.5258190000000  0.0261480000000 -0.4047270000000 1.0   0.00
Li     1 -0.1963390000000  0.3756510000000  0.3019950000000 1.0   0.03
Li     1  0.5186920000000 -0.1963390000000  0.3019950000000 1.0   0.03
Li     1  0.3756510000000  0.5186920000000  0.3019950000000 1.0   0.03
O      2  0.0617700000000  0.3674040000000  0.0138650000000 1.0   0.18
O      2 -0.4430410000000  0.0617700000000  0.0138650000000 1.0   0.18
O      2  0.3674040000000 -0.4430410000000  0.0138650000000 1.0   0.18
O      2 -0.5192810000000 -0.5192810000000  0.5578430000000 1.0   0.07
S      3 -0.1098410000000 -0.2773570000000  0.1477830000000 1.0   0.13
S      3  0.2394140000000 -0.1098410000000  0.1477830000000 1.0   0.13
S      3 -0.2773570000000  0.2394140000000  0.1477830000000 1.0   0.13
S      3 -0.1134630000000  0.1843790000000 -0.3889690000000 1.0   0.19
S      3  0.3180510000000 -0.1134630000000 -0.3889690000000 1.0   0.19
S      3  0.1843790000000  0.3180510000000 -0.3889690000000 1.0   0.19
S      3 -0.3523510000000 -0.3523510000000  0.0570530000000 1.0  -0.53
S      3 -0.1604890000000 -0.1604890000000  0.4814650000000 1.0  -0.26
Fe     4 -0.1946670000000  0.0204070000000 -0.0390500000000 1.0   2.62
Fe     4  0.2133090000000 -0.1946670000000 -0.0390500000000 1.0   2.62
Fe     4  0.0204070000000  0.2133090000000 -0.0390500000000 1.0   2.62
Fe     4  0.2503580000000  0.4115250000000 -0.2311880000000 1.0   1.87
Fe     4 -0.4306960000000  0.2503580000000 -0.2311880000000 1.0   1.87
Fe     4  0.4115250000000 -0.4306960000000 -0.2311880000000 1.0   1.87
END
