TITL LFSO-Li4Fe2SO4-200910-154630-5ac899 -0.0043 195.564123 -4.57972194E+003 -0.880733E-08 7.42770 11 (R3) n - 1
REM
REM Run started: Thu, 10 Sep 2020 17:26:12 +0100 in /lustre/scratch/uccabz1/launch_tmp/launcher_2020-09-10-14-46-29-302637
REM CASTEP 20.1 from code version af48c487+ pr-geom-scf-spinfix Tue Jun 2 15:39:59 2020 +0100
REM Functional Perdew Burke Ernzerhof Relativity Koelling-Harmon Dispersion off
REM Cut-off 340.0000 eV Grid scale 1.7500 Gmax 16.5316 1/A FBSC none
REM MP grid 3 3 3 Offset 0.000 0.000 0.000 No. kpts 6 Spacing 0.07
REM Total runtime: 6039.43 s
REM Overall efficiency: 93.1429 %
REM
REM
REM
REM compiler GCC version 4.9.2
REM options -cpp -iprefix /lustre/shared/ucl/apps/gcc/4.9.2/bin/../lib/gcc/x86_64-unknown-linux-gnu/4.9.2/ -mtune=corei7 -march=x86-64 -g -Og
REM COMMAND_LINE
REM seed -1083513672 -128966116 1605016321 1691013491 -290105938 1146782209 68341474 1352989351 234923857 2072087259 -436514295 -817940594
REM
REM S 3|1.8|5|6|7|30:31:32(qc=5)
REM O 2|1.5|12|13|15|20:21(qc=5)
REM Li 1|1.3|8|9|10|10U:20(qc=5)
REM Fe 3|2.2|2.0|1.0|8|9|10|40:41:32(qc=5)
REM 
CELL 1.54180    5.80783    5.80783    5.80783   91.92510   91.92510   91.92510
LATT -1
SFAC Li O  S  Fe 
Li     1 -0.3269030000000  0.2018200000000 -0.1400390000000 1.0   0.05
Li     1  0.2018200000000 -0.1400390000000 -0.3269030000000 1.0   0.05
Li     1 -0.1400390000000 -0.3269030000000  0.2018200000000 1.0   0.05
Li     1 -0.1653960000000 -0.1653960000000 -0.1653960000000 1.0   0.04
O      2  0.5191690000000 -0.1045830000000 -0.2656180000000 1.0   0.21
O      2 -0.1045830000000 -0.2656180000000  0.5191690000000 1.0   0.21
O      2 -0.2656180000000  0.5191690000000 -0.1045830000000 1.0   0.21
O      2  0.0087850000000  0.0087850000000  0.0087850000000 1.0  -0.25
S      3  0.4043480000000  0.4043480000000  0.4043480000000 1.0   0.04
Fe     4 -0.3756990000000 -0.3756990000000 -0.3756990000000 1.0   2.82
Fe     4  0.1868020000000  0.1868020000000  0.1868020000000 1.0  -3.44
END
