TITL LFSO-Li4Fe2SO4-200910-130337-86506b 0.0946 160.132558 -4.58267766E+003 9.50895 9.53131 11 (P-1) n - 1
REM
REM Run started: Thu, 10 Sep 2020 19:01:22 +0100 in /lustre/scratch/uccabz1/launch_tmp/launcher_2020-09-10-12-03-36-132198
REM CASTEP 20.1 from code version af48c487+ pr-geom-scf-spinfix Tue Jun 2 15:39:59 2020 +0100
REM Functional Perdew Burke Ernzerhof Relativity Koelling-Harmon Dispersion off
REM Cut-off 340.0000 eV Grid scale 1.7500 Gmax 16.5316 1/A FBSC none
REM MP grid 6 2 3 Offset 0.000 0.000 0.000 No. kpts 18 Spacing 0.07
REM Total runtime: 23753.1 s
REM Overall efficiency: 97.3077 %
REM
REM
REM
REM compiler GCC version 4.9.2
REM options -cpp -iprefix /lustre/shared/ucl/apps/gcc/4.9.2/bin/../lib/gcc/x86_64-unknown-linux-gnu/4.9.2/ -mtune=corei7 -march=x86-64 -g -Og
REM COMMAND_LINE
REM seed 1268852787 -1406233207 238980062 1332550526 -830426666 -278814299 129129719 992466841 -327558652 -1972868775 807775578 -2011063827
REM
REM S 3|1.8|5|6|7|30:31:32(qc=5)
REM O 2|1.5|12|13|15|20:21(qc=5)
REM Li 1|1.3|8|9|10|10U:20(qc=5)
REM Fe 3|2.2|2.0|1.0|8|9|10|40:41:32(qc=5)
REM 
CELL 1.54180    3.42719    9.79096    6.98678   61.06185   56.71236   58.15879
LATT -1
SFAC Li O  S  Fe 
Li     1 -0.7718990000000 -0.2789550000000 -0.0573070000000 1.0  -0.00
Li     1  0.7718990000000  0.2789550000000  0.0573070000000 1.0  -0.00
Li     1  0.4531220000000 -0.3444070000000  0.2978770000000 1.0  -0.01
Li     1 -0.4531220000000  0.3444070000000 -0.2978770000000 1.0  -0.01
O      2  0.1586510000000  0.2451090000000 -0.2653220000000 1.0   0.38
O      2 -0.1586510000000 -0.2451090000000  0.2653220000000 1.0   0.38
O      2  0.1437900000000 -0.0698510000000 -0.3024650000000 1.0   0.42
O      2 -0.1437900000000  0.0698510000000  0.3024650000000 1.0   0.42
S      3  0.0000000000000 -0.5000000000000  0.0000000000000 1.0   0.27
Fe     4  0.4961980000000 -0.0500260000000  0.3389420000000 1.0   3.83
Fe     4 -0.4961980000000  0.0500260000000 -0.3389420000000 1.0   3.83
END
