TITL LFSO-Li5FeSO3-200910-061133-3c9b0c 0.0256 359.787160 -6.96083648E+003 -9.98352 10.0672 20 (Fmm2) n - 1
REM
REM Run started: Thu, 10 Sep 2020 13:18:20 +0100 in /lustre/scratch/uccabz1/launch_tmp/launcher_2020-09-10-05-11-30-895633
REM CASTEP 20.1 from code version af48c487+ pr-geom-scf-spinfix Tue Jun 2 15:39:59 2020 +0100
REM Functional Perdew Burke Ernzerhof Relativity Koelling-Harmon Dispersion off
REM Cut-off 340.0000 eV Grid scale 1.7500 Gmax 16.5316 1/A FBSC none
REM MP grid 3 3 2 Offset 0.000 0.000 0.000 No. kpts 6 Spacing 0.07
REM Total runtime: 23268.8 s
REM Overall efficiency: 97.2 %
REM
REM
REM
REM compiler GCC version 4.9.2
REM options -cpp -iprefix /lustre/shared/ucl/apps/gcc/4.9.2/bin/../lib/gcc/x86_64-unknown-linux-gnu/4.9.2/ -mtune=corei7 -march=x86-64 -g -Og
REM COMMAND_LINE
REM seed 135275948 347005760 172742654 1273045036 441911478 -966393245 1497464544 1224650586 287278534 2130676090 -348306621 181154424
REM
REM S 3|1.8|5|6|7|30:31:32(qc=5)
REM O 2|1.5|12|13|15|20:21(qc=5)
REM Li 1|1.3|8|9|10|10U:20(qc=5)
REM Fe 3|2.2|2.0|1.0|8|9|10|40:41:32(qc=5)
REM 
CELL 1.54180    6.03027    6.03027   11.52258  110.15809  110.15809   71.52071
LATT -1
SFAC Li O  S  Fe 
Li     1 -0.1367950000000  0.4746740000000 -0.3646570000000 1.0  -0.08
Li     1 -0.4746740000000  0.1367950000000  0.3646570000000 1.0  -0.08
Li     1  0.2278620000000 -0.1606680000000  0.3646570000000 1.0  -0.08
Li     1  0.1606680000000 -0.2278620000000 -0.3646570000000 1.0  -0.08
Li     1 -0.2057080000000 -0.0372520000000  0.2083380000000 1.0   0.03
Li     1  0.0372520000000  0.2057080000000 -0.2083380000000 1.0   0.03
Li     1  0.5859550000000 -0.2455900000000 -0.2083380000000 1.0   0.03
Li     1  0.2455900000000 -0.5859550000000  0.2083380000000 1.0   0.03
Li     1  0.2200950000000  0.2659650000000 -0.5139410000000 1.0   0.09
Li     1 -0.2659650000000 -0.2200950000000  0.5139410000000 1.0   0.09
O      2  0.3126670000000  0.0456160000000 -0.2801040000000 1.0  -0.30
O      2 -0.0456160000000 -0.3126670000000  0.2801040000000 1.0  -0.30
O      2  0.5927700000000  0.3257190000000  0.2801040000000 1.0  -0.30
O      2 -0.3257190000000 -0.5927700000000 -0.2801040000000 1.0  -0.30
O      2 -0.0172700000000  0.5222940000000  0.5050250000000 1.0  -0.22
O      2 -0.5222940000000  0.0172700000000 -0.5050250000000 1.0  -0.22
S      3 -0.0957790000000 -0.1276310000000 -0.2234100000000 1.0  -0.30
S      3  0.1276310000000  0.0957790000000  0.2234100000000 1.0  -0.30
Fe     4 -0.1319490000000 -0.5544420000000  0.3136090000000 1.0  -3.86
Fe     4  0.5544420000000  0.1319490000000 -0.3136090000000 1.0  -3.86
END
