TITL LFSO-Li3Fe3SO5-201002-140822-902fbc 0.0316 189.433503 -5.68378143E+003 10.9802 11.1257 12 (P1) n - 1
REM
REM Run started: Fri, 02 Oct 2020 16:38:38 +0100 in /scratch/scratch/mmm0366/launch_tmp/launcher_2020-10-02-13-08-21-311608
REM CASTEP 19.11| from code version Version unavailable
REM Functional Perdew Burke Ernzerhof Relativity Koelling-Harmon Dispersion off
REM Cut-off 340.0000 eV Grid scale 1.7500 Gmax 16.5316 1/A FBSC none
REM MP grid 4 4 2 Offset 0.000 0.000 0.000 No. kpts 10 Spacing 0.07
REM Total runtime: 9147.06 s
REM Overall efficiency: 78.9167 %
REM
REM
REM
REM compiler GCC version 4.9.2
REM options -cpp -iprefix /scratch/UCL/applications/gcc/4.9.2/bin/../lib/gcc/x86_64-unknown-linux-gnu/4.9.2/ -mtune=corei7 -march=x86-64 -g -O2
REM COMMAND_LINE
REM seed -1345351646 1156422605 1384288072 -1168693442 -949527846 2063182602 1657616814 2032201193 -1997581045 -1784713921 1168440648 -990509576
REM
REM S 3|1.8|5|6|7|30:31:32(qc=5)
REM O 2|1.5|12|13|15|20:21(qc=5)
REM Li 1|1.3|8|9|10|10U:20(qc=5)
REM Fe 3|2.2|2.0|1.0|8|9|10|40:41:32(qc=5)
REM 
CELL 1.54180    5.17535    5.17535    8.01862   81.57725   81.57725  113.72377
LATT -1
SFAC Li O  S  Fe 
Li     1  0.5398450000000  0.1610590000000  0.1503840000000 1.0   0.00
Li     1  0.1610590000000  0.5398450000000  0.1503840000000 1.0   0.00
Li     1  0.0923290000000  0.0923290000000  0.9714820000000 1.0  -0.01
O      2 -0.1521100000000  0.1721290000000  0.2591760000000 1.0   0.18
O      2  0.1721290000000 -0.1521100000000  0.2591760000000 1.0   0.18
O      2 -0.2413470000000  0.1251520000000 -0.1018190000000 1.0   0.40
O      2  0.1251520000000 -0.2413470000000 -0.1018190000000 1.0   0.40
O      2 -0.5450650000000 -0.5450650000000  0.0067910000000 1.0   0.42
S      3 -0.3832030000000 -0.3832030000000 -0.4013040000000 1.0   0.12
Fe     4 -0.2017390000000  0.5089150000000 -0.1643970000000 1.0   3.61
Fe     4  0.5089150000000 -0.2017390000000 -0.1643970000000 1.0   3.61
Fe     4 -0.0833790000000 -0.0833790000000  0.3684780000000 1.0   2.08
END
