TITL LFSO-Li2FeSO-200912-042939-8b2285 0.0734 305.603650 -8.01997420E+003 15.9711 16.1698 20 (P3) n - 1
REM
REM Run started: Sat, 12 Sep 2020 13:01:17 +0100 in /lustre/scratch/uccabz1/launch_tmp/launcher_2020-09-12-03-29-36-876961
REM CASTEP 20.1 from code version af48c487+ pr-geom-scf-spinfix Tue Jun 2 15:39:59 2020 +0100
REM Functional Perdew Burke Ernzerhof Relativity Koelling-Harmon Dispersion off
REM Cut-off 340.0000 eV Grid scale 1.7500 Gmax 16.5316 1/A FBSC none
REM MP grid 3 3 3 Offset 0.000 0.000 0.000 No. kpts 8 Spacing 0.07
REM Total runtime: 30833.5 s
REM Overall efficiency: 95.5455 %
REM
REM
REM
REM compiler GCC version 4.9.2
REM options -cpp -iprefix /lustre/shared/ucl/apps/gcc/4.9.2/bin/../lib/gcc/x86_64-unknown-linux-gnu/4.9.2/ -mtune=corei7 -march=x86-64 -g -Og
REM COMMAND_LINE
REM seed 1791534022 -1916424813 164688458 2015192518 1986482373 308259479 544404583 1417315894 732942875 -95662560 -1077160722 609108895
REM
REM S 3|1.8|5|6|7|30:31:32(qc=5)
REM O 2|1.5|12|13|15|20:21(qc=5)
REM Li 1|1.3|8|9|10|10U:20(qc=5)
REM Fe 3|2.2|2.0|1.0|8|9|10|40:41:32(qc=5)
REM 
CELL 1.54180    5.92154    7.71963    7.71963  120.00000   90.00000   90.00000
LATT -1
SFAC Li O  S  Fe 
Li     1  0.2952800000000 -0.0798380000000  0.2009840000000 1.0  -0.04
Li     1  0.2952800000000  0.2808220000000  0.0798380000000 1.0  -0.04
Li     1  0.2952800000000 -0.2009840000000 -0.2808220000000 1.0  -0.04
Li     1 -0.4229260000000  0.5242840000000  0.0662680000000 1.0  -0.00
Li     1 -0.4229260000000  0.5419840000000 -0.5242840000000 1.0  -0.00
Li     1 -0.4229260000000 -0.0662680000000 -0.5419840000000 1.0  -0.00
Li     1 -0.4127530000000 -0.0000000000000  0.0000000000000 1.0   0.03
Li     1 -0.0056430000000 -0.0000000000000  0.0000000000000 1.0   0.05
O      2  0.3494690000000  0.1192440000000  0.4691770000000 1.0   0.35
O      2  0.3494690000000  0.3499320000000 -0.1192440000000 1.0   0.35
O      2  0.3494690000000 -0.4691770000000 -0.3499320000000 1.0   0.35
O      2  0.2898010000000 -0.0000000000000  0.0000000000000 1.0   0.06
S      3 -0.2077990000000  0.0890540000000 -0.2432770000000 1.0   0.20
S      3 -0.2077990000000 -0.3323310000000 -0.0890540000000 1.0   0.20
S      3 -0.2077990000000  0.2432770000000  0.3323310000000 1.0   0.20
S      3 -0.6704460000000 -0.3333330000000  0.3333330000000 1.0   0.09
Fe     4  0.1346840000000  0.3227910000000  0.4795270000000 1.0   3.49
Fe     4  0.1346840000000  0.1567370000000 -0.3227910000000 1.0   3.49
Fe     4  0.1346840000000 -0.4795270000000 -0.1567370000000 1.0   3.49
Fe     4  0.6087180000000  0.3333330000000 -0.3333330000000 1.0   3.77
END
