TITL LFSO-LiFe3S2O3-200909-195610-c7039e -0.0444 159.728480 -4.71226471E+003 -0.903962 5.49883 9 (P2) n - 1
REM
REM Run started: Wed, 09 Sep 2020 21:51:18 +0100 in /lustre/scratch/uccabz1/launch_tmp/launcher_2020-09-09-18-56-08-452056
REM CASTEP 20.1 from code version af48c487+ pr-geom-scf-spinfix Tue Jun 2 15:39:59 2020 +0100
REM Functional Perdew Burke Ernzerhof Relativity Koelling-Harmon Dispersion off
REM Cut-off 340.0000 eV Grid scale 1.7500 Gmax 16.5316 1/A FBSC none
REM MP grid 5 3 2 Offset 0.000 0.000 0.000 No. kpts 10 Spacing 0.07
REM Total runtime: 7500.33 s
REM Overall efficiency: 81.4286 %
REM
REM
REM
REM compiler GCC version 4.9.2
REM options -cpp -iprefix /lustre/shared/ucl/apps/gcc/4.9.2/bin/../lib/gcc/x86_64-unknown-linux-gnu/4.9.2/ -mtune=corei7 -march=x86-64 -g -Og
REM COMMAND_LINE
REM seed 1545312240 -1292850734 422664791 -1059474973 -332125544 -759749208 513878170 493710573 848569545 1525342374 -2062805945 -1864406323
REM
REM S 3|1.8|5|6|7|30:31:32(qc=5)
REM O 2|1.5|12|13|15|20:21(qc=5)
REM Li 1|1.3|8|9|10|10U:20(qc=5)
REM Fe 3|2.2|2.0|1.0|8|9|10|40:41:32(qc=5)
REM 
CELL 1.54180    3.47331    5.72963    8.16153   90.00000  100.44637   90.00000
LATT -1
SFAC Li O  S  Fe 
Li     1  0.0000000000000  0.1728060000000  0.0000000000000 1.0   0.03
O      2 -0.3069990000000 -0.0647500000000 -0.1361940000000 1.0  -0.03
O      2  0.3069990000000 -0.0647500000000  0.1361940000000 1.0  -0.03
O      2 -0.5000000000000 -0.2820150000000 -0.5000000000000 1.0   0.02
S      3  0.1482920000000 -0.5020570000000 -0.2127710000000 1.0  -0.12
S      3 -0.1482920000000 -0.5020570000000  0.2127710000000 1.0  -0.12
Fe     4  0.3801860000000 -0.2898460000000  0.2873370000000 1.0   1.11
Fe     4 -0.3801860000000 -0.2898460000000 -0.2873370000000 1.0   1.11
Fe     4  0.0000000000000 -0.2742500000000  0.0000000000000 1.0  -2.87
END
