TITL LFSO-LiFe3S3O2-200909-115229-8b6710 0.0532 251.064402 -9.15703767E+003 -3.88596 4.34392 18 (P3) n - 1
REM
REM Run started: Thu, 10 Sep 2020 03:52:50 +0100 in /lustre/scratch/uccabz1/launch_tmp/launcher_2020-09-09-10-52-26-974364
REM CASTEP 20.1 from code version af48c487+ pr-geom-scf-spinfix Tue Jun 2 15:39:59 2020 +0100
REM Functional Perdew Burke Ernzerhof Relativity Koelling-Harmon Dispersion off
REM Cut-off 340.0000 eV Grid scale 1.7500 Gmax 16.5316 1/A FBSC none
REM MP grid 3 3 2 Offset 0.000 0.000 0.000 No. kpts 5 Spacing 0.07
REM Total runtime: 57718.5 s
REM Overall efficiency: 79.6364 %
REM
REM
REM
REM compiler GCC version 4.9.2
REM options -cpp -iprefix /lustre/shared/ucl/apps/gcc/4.9.2/bin/../lib/gcc/x86_64-unknown-linux-gnu/4.9.2/ -mtune=corei7 -march=x86-64 -g -Og
REM COMMAND_LINE
REM seed -754471391 481918934 -1034987668 -2033198563 -1352768484 -212782733 544493234 -468486780 1230939370 -760177015 -940395531 -2038336511
REM
REM S 3|1.8|5|6|7|30:31:32(qc=5)
REM O 2|1.5|12|13|15|20:21(qc=5)
REM Li 1|1.3|8|9|10|10U:20(qc=5)
REM Fe 3|2.2|2.0|1.0|8|9|10|40:41:32(qc=5)
REM 
CELL 1.54180    5.66255    5.66255    9.04130   90.00000   90.00000  120.00000
LATT -1
SFAC Li O  S  Fe 
Li     1 -0.3333330000000  0.3333330000000 -0.3238860000000 1.0  -0.01
Li     1  0.0000000000000 -0.0000000000000 -0.2574730000000 1.0   0.02
O      2 -0.4632600000000 -0.0004190000000 -0.4310360000000 1.0  -0.12
O      2  0.0004190000000 -0.4628410000000 -0.4310360000000 1.0  -0.12
O      2  0.4628410000000  0.4632600000000 -0.4310360000000 1.0  -0.12
O      2  0.0000000000000 -0.0000000000000  0.5333030000000 1.0  -0.04
S      3  0.3560170000000  0.0044960000000 -0.0488740000000 1.0  -0.00
S      3 -0.0044960000000  0.3515210000000 -0.0488740000000 1.0  -0.00
S      3 -0.3515210000000 -0.3560170000000 -0.0488740000000 1.0  -0.00
S      3  0.3488460000000 -0.0025970000000  0.2408540000000 1.0   0.01
S      3  0.0025970000000  0.3514430000000  0.2408540000000 1.0   0.01
S      3 -0.3514430000000 -0.3488460000000  0.2408540000000 1.0   0.01
Fe     4  0.0026600000000 -0.2978070000000  0.0954570000000 1.0  -0.09
Fe     4  0.2978070000000  0.3004680000000  0.0954570000000 1.0  -0.09
Fe     4 -0.3004680000000 -0.0026600000000  0.0954570000000 1.0  -0.09
Fe     4  0.1518940000000  0.3761930000000 -0.5252110000000 1.0  -1.09
Fe     4 -0.3761930000000 -0.2242990000000 -0.5252110000000 1.0  -1.09
Fe     4  0.2242990000000 -0.1518940000000 -0.5252110000000 1.0  -1.09
END
