TITL LFSO-Li4Fe2S2O3-200911-082128-adf148 0.0922 425.793960 -8.89081916E+003 -13.6552 14.5677 22 (Pm) n - 1
REM
REM Run started: Sat, 12 Sep 2020 11:16:53 +0100 in /lustre/scratch/uccabz1/launch_tmp/launcher_2020-09-12-09-41-13-000793
REM CASTEP 20.1 from code version af48c487+ pr-geom-scf-spinfix Tue Jun 2 15:39:59 2020 +0100
REM Functional Perdew Burke Ernzerhof Relativity Koelling-Harmon Dispersion off
REM Cut-off 340.0000 eV Grid scale 1.7500 Gmax 16.5316 1/A FBSC none
REM MP grid 5 2 1 Offset 0.000 0.000 0.000 No. kpts 3 Spacing 0.07
REM Total runtime: 90804.4 s
REM Overall efficiency: 93.5714 %
REM
REM
REM
REM compiler GCC version 4.9.2
REM options -cpp -iprefix /lustre/shared/ucl/apps/gcc/4.9.2/bin/../lib/gcc/x86_64-unknown-linux-gnu/4.9.2/ -mtune=corei7 -march=x86-64 -g -Og
REM COMMAND_LINE
REM seed -1484881964 1703125664 -473461707 -230692992 -1052392909 -1754260946 -1634899607 230632512 -506141442 529319220 1098244886 -631813160
REM
REM S 3|1.8|5|6|7|30:31:32(qc=5)
REM O 2|1.5|12|13|15|20:21(qc=5)
REM Li 1|1.3|8|9|10|10U:20(qc=5)
REM Fe 3|2.2|2.0|1.0|8|9|10|40:41:32(qc=5)
REM 
CELL 1.54180    3.68999    7.88162   17.02541   90.00000  120.69164   90.00000
LATT -1
SFAC Li O  S  Fe 
Li     1 -0.1834970000000 -0.2213780000000  0.4064420000000 1.0   0.01
Li     1 -0.1834970000000  0.2213780000000  0.4064420000000 1.0   0.01
Li     1 -0.3523900000000  0.3034740000000 -0.1137870000000 1.0   0.03
Li     1 -0.3523900000000 -0.3034740000000 -0.1137870000000 1.0   0.03
Li     1  0.2023310000000 -0.2496410000000  0.1336900000000 1.0   0.15
Li     1  0.2023310000000  0.2496410000000  0.1336900000000 1.0   0.15
Li     1 -0.1079030000000 -0.2187710000000 -0.2283970000000 1.0   0.01
Li     1 -0.1079030000000  0.2187710000000 -0.2283970000000 1.0   0.01
O      2  0.2256460000000  0.2148180000000  0.3691110000000 1.0  -0.32
O      2  0.2256460000000 -0.2148180000000  0.3691110000000 1.0  -0.32
O      2  0.1608590000000 -0.2917570000000 -0.1085880000000 1.0  -0.19
O      2  0.1608590000000  0.2917570000000 -0.1085880000000 1.0  -0.19
O      2 -0.3019650000000 -0.2541930000000  0.1318310000000 1.0  -0.20
O      2 -0.3019650000000  0.2541930000000  0.1318310000000 1.0  -0.20
S      3  0.1951460000000 -0.2319880000000 -0.3126540000000 1.0  -0.01
S      3  0.1951460000000  0.2319880000000 -0.3126540000000 1.0  -0.01
S      3 -0.1910170000000 -0.1399180000000 -0.4394500000000 1.0  -0.01
S      3 -0.1910170000000  0.1399180000000 -0.4394500000000 1.0  -0.01
Fe     4 -0.0292900000000 -0.1719380000000  0.2526520000000 1.0  -3.21
Fe     4 -0.0292900000000  0.1719380000000  0.2526520000000 1.0  -3.21
Fe     4  0.4304920000000  0.3298680000000  0.0123290000000 1.0  -3.07
Fe     4  0.4304920000000 -0.3298680000000  0.0123290000000 1.0  -3.07
END
