TITL LFSO-Li6FeS3O-200910-004616-94df74 0.2274 468.030754 -6821.325412425 7.97925 8.27055 22 (P21/c) n - 1
REM
REM Run started: Fri, 11 Sep 2020 14:38:14 +0100 in /lustre/scratch/uccabz1/launch_tmp/launcher_2020-09-09-23-46-14-417521
REM CASTEP 20.1 from code version af48c487+ pr-geom-scf-spinfix Tue Jun 2 15:39:59 2020 +0100
REM Functional Perdew Burke Ernzerhof Relativity Koelling-Harmon Dispersion off
REM Cut-off 340.0000 eV Grid scale 1.7500 Gmax 16.5316 1/A FBSC none
REM MP grid 4 3 3 Offset 0.000 0.000 0.000 No. kpts 12 Spacing 0.07
REM Total runtime: 136305 s
REM Overall efficiency: 96.2727 %
REM
REM
REM
REM compiler GCC version 4.9.2
REM options -cpp -iprefix /lustre/shared/ucl/apps/gcc/4.9.2/bin/../lib/gcc/x86_64-unknown-linux-gnu/4.9.2/ -mtune=corei7 -march=x86-64 -g -Og
REM COMMAND_LINE
REM seed -387580612 183381162 -1704140138 418721434 531515011 -76618487 973106650 1609892235 -1840168190 1288261607 -49542939 76262472
REM
REM S 3|1.8|5|6|7|30:31:32(qc=5)
REM O 2|1.5|12|13|15|20:21(qc=5)
REM Li 1|1.3|8|9|10|10U:20(qc=5)
REM Fe 3|2.2|2.0|1.0|8|9|10|40:41:32(qc=5)
REM 
CELL 1.54180    9.94698    7.32010   16.66539   90.00000  157.31274   90.00000
LATT -1
SFAC Li O  S  Fe 
Li     1 -0.2429870000000  0.1826860000000 -0.3221490000000 1.0  -0.00
Li     1  0.7429870000000 -0.3173140000000  0.3221490000000 1.0  -0.00
Li     1  0.2429870000000 -0.1826860000000  0.3221490000000 1.0  -0.00
Li     1 -0.7429870000000  0.3173140000000 -0.3221490000000 1.0  -0.00
Li     1  0.5691720000000  0.0354290000000  0.1638220000000 1.0   0.01
Li     1 -0.0691720000000 -0.4645710000000 -0.1638220000000 1.0   0.01
Li     1 -0.5691720000000 -0.0354290000000 -0.1638220000000 1.0   0.01
Li     1  0.0691720000000  0.4645710000000  0.1638220000000 1.0   0.01
Li     1 -0.6915590000000 -0.3178360000000 -0.3350620000000 1.0  -0.00
Li     1  0.1915590000000  0.1821640000000  0.3350620000000 1.0  -0.00
Li     1  0.6915590000000  0.3178360000000  0.3350620000000 1.0  -0.00
Li     1 -0.1915590000000 -0.1821640000000 -0.3350620000000 1.0  -0.00
O      2  0.5000000000000  0.0000000000000  0.5000000000000 1.0   0.03
O      2 -1.0000000000000  0.5000000000000 -0.5000000000000 1.0   0.03
S      3  0.1445820000000  0.2190950000000 -0.0055840000000 1.0   0.12
S      3  0.3554180000000 -0.2809050000000  0.0055840000000 1.0   0.12
S      3 -0.1445820000000 -0.2190950000000  0.0055840000000 1.0   0.12
S      3 -0.3554180000000  0.2809050000000 -0.0055840000000 1.0   0.12
S      3 -1.0000000000000  0.0000000000000 -0.5000000000000 1.0   0.05
S      3  0.5000000000000  0.5000000000000  0.5000000000000 1.0   0.05
Fe     4  0.0000000000000  0.0000000000000  0.0000000000000 1.0   3.67
Fe     4  0.5000000000000  0.5000000000000  0.0000000000000 1.0   3.67
END
