TITL LFSO-Li4Fe3SO4-200930-124538-b46cad 0.0145 182.537458 -5.44524940E+003 12.0000 12.2467 12 (R3m) n - 1
REM
REM Run started: Wed, 30 Sep 2020 13:57:10 +0100 in /lustre/scratch/uccabz1/launch_tmp/launcher_2020-09-30-11-45-36-549991
REM CASTEP 20.1 from code version af48c487+ pr-geom-scf-spinfix Tue Jun 2 15:39:59 2020 +0100
REM Functional Perdew Burke Ernzerhof Relativity Koelling-Harmon Dispersion off
REM Cut-off 340.0000 eV Grid scale 1.7500 Gmax 16.5316 1/A FBSC none
REM MP grid 3 3 3 Offset 0.000 0.000 0.000 No. kpts 6 Spacing 0.07
REM Total runtime: 4325.44 s
REM Overall efficiency: 91.625 %
REM
REM
REM
REM compiler GCC version 4.9.2
REM options -cpp -iprefix /lustre/shared/ucl/apps/gcc/4.9.2/bin/../lib/gcc/x86_64-unknown-linux-gnu/4.9.2/ -mtune=corei7 -march=x86-64 -g -Og
REM COMMAND_LINE
REM seed -1957723625 1231785874 796012379 -277454146 1092818194 -1084908256 -1409558357 2008689642 497164362 1944914432 -1776763251 910362571
REM
REM S 3|1.8|5|6|7|30:31:32(qc=5)
REM O 2|1.5|12|13|15|20:21(qc=5)
REM Li 1|1.3|8|9|10|10U:20(qc=5)
REM Fe 3|2.2|2.0|1.0|8|9|10|40:41:32(qc=5)
REM 
CELL 1.54180    5.91896    5.91896    6.91910   64.67669   64.67669   60.00000
LATT -1
SFAC Li O  S  Fe 
Li     1  0.2302540000000  0.2302540000000 -0.2029060000000 1.0  -0.04
Li     1  0.2302540000000 -0.2576010000000 -0.2029060000000 1.0  -0.04
Li     1 -0.2576010000000  0.2302540000000 -0.2029060000000 1.0  -0.04
Li     1 -0.2798420000000 -0.2798420000000 -0.1604740000000 1.0   0.10
O      2 -0.0633640000000 -0.0633640000000 -0.3308130000000 1.0   0.34
O      2 -0.0633640000000  0.4575410000000 -0.3308130000000 1.0   0.34
O      2  0.4575410000000 -0.0633640000000 -0.3308130000000 1.0   0.34
O      2  0.4304690000000  0.4304690000000 -0.2914080000000 1.0   0.31
S      3 -0.4093580000000 -0.4093580000000  0.2280740000000 1.0   0.12
Fe     4  0.1464360000000 -0.3148820000000  0.4833280000000 1.0   3.53
Fe     4 -0.3148820000000 -0.3148820000000  0.4833280000000 1.0   3.53
Fe     4 -0.3148820000000  0.1464360000000  0.4833280000000 1.0   3.53
END
