TITL LFSO-Li2Fe2S2O-200913-115718-26fd0a -0.0103 192.414161 -6.34184254E+003 -11.0476 11.7890 14 (R3) n - 1
REM
REM Run started: Sun, 13 Sep 2020 14:30:30 +0100 in /lustre/scratch/uccabz1/launch_tmp/launcher_2020-09-13-10-57-16-194570
REM CASTEP 20.1 from code version af48c487+ pr-geom-scf-spinfix Tue Jun 2 15:39:59 2020 +0100
REM Functional Perdew Burke Ernzerhof Relativity Koelling-Harmon Dispersion off
REM Cut-off 340.0000 eV Grid scale 1.7500 Gmax 16.5316 1/A FBSC none
REM MP grid 3 3 3 Offset 0.000 0.000 0.000 No. kpts 6 Spacing 0.07
REM Total runtime: 9269.67 s
REM Overall efficiency: 95.3333 %
REM
REM
REM
REM compiler GCC version 4.9.2
REM options -cpp -iprefix /lustre/shared/ucl/apps/gcc/4.9.2/bin/../lib/gcc/x86_64-unknown-linux-gnu/4.9.2/ -mtune=corei7 -march=x86-64 -g -Og
REM COMMAND_LINE
REM seed -21010136 -1983822980 -1725497676 -1841991851 -1734511847 1238528514 15263706 183172938 -1541250489 110350398 -581157264 979006447
REM
REM S 3|1.8|5|6|7|30:31:32(qc=5)
REM O 2|1.5|12|13|15|20:21(qc=5)
REM Li 1|1.3|8|9|10|10U:20(qc=5)
REM Fe 3|2.2|2.0|1.0|8|9|10|40:41:32(qc=5)
REM 
CELL 1.54180    6.74666    6.74666    6.24491   57.30463   57.30463   60.00000
LATT -1
SFAC Li O  S  Fe 
Li     1 -0.0048120000000 -0.0806770000000 -0.4221380000000 1.0   0.06
Li     1  0.5076270000000 -0.0048120000000 -0.4221380000000 1.0   0.06
Li     1 -0.0806770000000  0.5076270000000 -0.4221380000000 1.0   0.06
Li     1  0.2222200000000  0.2222200000000  0.3333400000000 1.0  -0.03
O      2  0.1049120000000  0.1049120000000 -0.3147370000000 1.0  -0.11
O      2 -0.1531240000000 -0.1531240000000  0.4593730000000 1.0   0.03
S      3 -0.0877870000000 -0.5226580000000  0.1520380000000 1.0  -0.18
S      3  0.4584070000000 -0.0877870000000  0.1520380000000 1.0  -0.18
S      3 -0.5226580000000  0.4584070000000  0.1520380000000 1.0  -0.18
S      3 -0.0367370000000 -0.0367370000000  0.1102110000000 1.0   0.13
Fe     4  0.2253630000000 -0.3710630000000 -0.0650150000000 1.0  -2.59
Fe     4  0.2107150000000  0.2253630000000 -0.0650150000000 1.0  -2.59
Fe     4 -0.3710630000000  0.2107150000000 -0.0650150000000 1.0  -2.59
Fe     4  0.4965950000000  0.4965950000000 -0.4897850000000 1.0  -2.92
END
