TITL LFSO-Li2Fe2S2O-200913-122342-14cb08 -0.0114 100.459619 -3.17183538E+003 7.23671 7.30703 7 (R3m) n - 1
REM
REM Run started: Sun, 13 Sep 2020 13:27:38 +0100 in /lustre/scratch/uccabz1/launch_tmp/launcher_2020-09-13-11-23-40-827541
REM CASTEP 20.1 from code version af48c487+ pr-geom-scf-spinfix Tue Jun 2 15:39:59 2020 +0100
REM Functional Perdew Burke Ernzerhof Relativity Koelling-Harmon Dispersion off
REM Cut-off 340.0000 eV Grid scale 1.7500 Gmax 16.5316 1/A FBSC none
REM MP grid 5 5 2 Offset 0.000 0.000 0.000 No. kpts 15 Spacing 0.07
REM Total runtime: 4979.51 s
REM Overall efficiency: 94.8333 %
REM
REM
REM
REM compiler GCC version 4.9.2
REM options -cpp -iprefix /lustre/shared/ucl/apps/gcc/4.9.2/bin/../lib/gcc/x86_64-unknown-linux-gnu/4.9.2/ -mtune=corei7 -march=x86-64 -g -Og
REM COMMAND_LINE
REM seed 847946309 -1595543818 701304141 -1311672099 -1379736619 536969715 -667878011 1990770874 943473905 1691474679 -1169584846 1992836150
REM
REM S 3|1.8|5|6|7|30:31:32(qc=5)
REM O 2|1.5|12|13|15|20:21(qc=5)
REM Li 1|1.3|8|9|10|10U:20(qc=5)
REM Fe 3|2.2|2.0|1.0|8|9|10|40:41:32(qc=5)
REM 
CELL 1.54180    3.64961    3.64961    8.96025   78.24916   78.24916   60.00000
LATT -1
SFAC Li O  S  Fe 
Li     1 -0.2689090000000 -0.2689090000000 -0.1932730000000 1.0  -0.08
Li     1  0.3224680000000  0.3224680000000  0.0325950000000 1.0   0.00
O      2  0.2482000000000  0.2482000000000  0.2554010000000 1.0   0.33
S      3 -0.1748050000000 -0.1748050000000  0.5244160000000 1.0   0.20
S      3  0.0366690000000  0.0366690000000 -0.1100070000000 1.0   0.17
Fe     4  0.4676980000000  0.4676980000000 -0.4030920000000 1.0   2.87
Fe     4 -0.4367980000000 -0.4367980000000  0.3103940000000 1.0   3.75
END
