TITL LFSO-Li4Fe3SO4-200930-033523-f51f27 0.0200 222.366165 -5.44495794E+003 3.66402 3.92869 12 (P222) n - 1
REM
REM Run started: Wed, 30 Sep 2020 10:47:43 +0100 in /lustre/scratch/uccabz1/launch_tmp/launcher_2020-09-30-08-35-02-334460
REM CASTEP 20.1 from code version af48c487+ pr-geom-scf-spinfix Tue Jun 2 15:39:59 2020 +0100
REM Functional Perdew Burke Ernzerhof Relativity Koelling-Harmon Dispersion off
REM Cut-off 340.0000 eV Grid scale 1.7500 Gmax 16.5316 1/A FBSC none
REM MP grid 2 5 2 Offset 0.000 0.000 0.000 No. kpts 3 Spacing 0.07
REM Total runtime: 25518.4 s
REM Overall efficiency: 90.4545 %
REM
REM
REM
REM compiler GCC version 4.9.2
REM options -cpp -iprefix /lustre/shared/ucl/apps/gcc/4.9.2/bin/../lib/gcc/x86_64-unknown-linux-gnu/4.9.2/ -mtune=corei7 -march=x86-64 -g -Og
REM COMMAND_LINE
REM seed 1266193483 1663077168 1479156261 697140473 -1394012757 -891758673 936301672 979591902 912646595 1754913009 272626282 1324569485
REM
REM S 3|1.8|5|6|7|30:31:32(qc=5)
REM O 2|1.5|12|13|15|20:21(qc=5)
REM Li 1|1.3|8|9|10|10U:20(qc=5)
REM Fe 3|2.2|2.0|1.0|8|9|10|40:41:32(qc=5)
REM 
CELL 1.54180    7.92987    3.48843    8.03845   90.00000   90.00000   90.00000
LATT -1
SFAC Li O  S  Fe 
Li     1 -0.2145830000000  0.0178830000000  0.1989060000000 1.0  -0.03
Li     1 -0.2145830000000 -0.0178830000000 -0.1989060000000 1.0  -0.03
Li     1  0.2145830000000 -0.0178830000000  0.1989060000000 1.0  -0.03
Li     1  0.2145830000000  0.0178830000000 -0.1989060000000 1.0  -0.03
O      2 -0.1643100000000 -0.4833280000000  0.1672780000000 1.0   0.07
O      2 -0.1643100000000  0.4833280000000 -0.1672780000000 1.0   0.07
O      2  0.1643100000000  0.4833280000000  0.1672780000000 1.0   0.07
O      2  0.1643100000000 -0.4833280000000 -0.1672780000000 1.0   0.07
S      3  0.0000000000000  0.0000000000000 -0.5000000000000 1.0  -0.03
Fe     4  0.0000000000000  0.5000000000000  0.3485170000000 1.0   0.59
Fe     4  0.0000000000000 -0.5000000000000 -0.3485170000000 1.0   0.59
Fe     4  0.0000000000000 -0.5000000000000  0.0000000000000 1.0   2.33
END
