TITL LFSO-Li4Fe3S2O3-200928-145552-fe933f 0.1537 196.907421 -5.31194670E+003 7.91059 8.82054 12 (Cm) n - 1
REM
REM Run started: Tue, 29 Sep 2020 10:54:11 +0100 in /scratch/scratch/uccabz1/launch_tmp/launcher_2020-09-28-13-55-50-730637
REM CASTEP 19.11| from code version Version unavailable
REM Functional Perdew Burke Ernzerhof Relativity Koelling-Harmon Dispersion off
REM Cut-off 340.0000 eV Grid scale 1.7500 Gmax 16.5316 1/A FBSC none
REM MP grid 3 3 4 Offset 0.000 0.000 0.000 No. kpts 12 Spacing 0.07
REM Total runtime: 41852.1 s
REM Overall efficiency: 74.8333 %
REM
REM
REM
REM compiler GCC version 4.9.2
REM options -cpp -iprefix /scratch/UCL/applications/gcc/4.9.2/bin/../lib/gcc/x86_64-unknown-linux-gnu/4.9.2/ -mtune=corei7 -march=x86-64 -g -O2
REM COMMAND_LINE
REM seed 808753635 1222917924 -850135065 -404998169 -285772428 1045335798 120027779 -475949521 2008433798 363466227 1077604573 -1565071360
REM
REM S 3|1.8|5|6|7|30:31:32(qc=5)
REM O 2|1.5|12|13|15|20:21(qc=5)
REM Li 1|1.3|8|9|10|10U:20(qc=5)
REM Fe 3|2.2|2.0|1.0|8|9|10|40:41:32(qc=5)
REM 
CELL 1.54180    7.69937    7.69937    7.62802   42.03795   42.03795   63.59907
LATT -1
SFAC Li O  S  Fe 
Li     1 -0.3376180000000 -0.0195570000000  0.1927540000000 1.0  -0.02
Li     1 -0.0195570000000 -0.3376180000000  0.1927540000000 1.0  -0.02
Li     1 -0.5037150000000 -0.1163080000000 -0.3146660000000 1.0   0.03
Li     1 -0.1163080000000 -0.5037150000000 -0.3146660000000 1.0   0.03
O      2  0.2829960000000 -0.1260360000000 -0.3408420000000 1.0   0.29
O      2 -0.1260360000000  0.2829960000000 -0.3408420000000 1.0   0.29
O      2 -0.1796540000000 -0.1796540000000  0.4016910000000 1.0   0.12
S      3 -0.1439460000000  0.3821200000000  0.1296110000000 1.0   0.15
S      3  0.3821200000000 -0.1439460000000  0.1296110000000 1.0   0.15
Fe     4 -0.1727590000000  0.1200530000000 -0.3938370000000 1.0   3.02
Fe     4  0.1200530000000 -0.1727590000000 -0.3938370000000 1.0   3.02
Fe     4  0.0449770000000  0.0449770000000  0.2061530000000 1.0   0.86
END
