TITL LFSO-Li5FeS3O-200910-092006-f14929 -0.4497 432.834370 -6.42653746E+003 7.47316 7.68493 20 (P2221) n - 1
REM
REM Run started: Thu, 10 Sep 2020 14:04:30 +0100 in /lustre/scratch/uccabz1/launch_tmp/launcher_2020-09-10-08-20-03-683056
REM CASTEP 20.1 from code version af48c487+ pr-geom-scf-spinfix Tue Jun 2 15:39:59 2020 +0100
REM Functional Perdew Burke Ernzerhof Relativity Koelling-Harmon Dispersion off
REM Cut-off 340.0000 eV Grid scale 1.7500 Gmax 16.5316 1/A FBSC none
REM MP grid 3 3 2 Offset 0.000 0.000 0.000 No. kpts 4 Spacing 0.07
REM Total runtime: 19488.8 s
REM Overall efficiency: 92.1667 %
REM
REM
REM
REM compiler GCC version 4.9.2
REM options -cpp -iprefix /lustre/shared/ucl/apps/gcc/4.9.2/bin/../lib/gcc/x86_64-unknown-linux-gnu/4.9.2/ -mtune=corei7 -march=x86-64 -g -Og
REM COMMAND_LINE
REM seed -649739987 2039384568 1503543799 -1956224421 197313024 -2063898121 -2063243759 1136641025 240184644 -303565687 1917624718 999157321
REM
REM S 3|1.8|5|6|7|30:31:32(qc=5)
REM O 2|1.5|12|13|15|20:21(qc=5)
REM Li 1|1.3|8|9|10|10U:20(qc=5)
REM Fe 3|2.2|2.0|1.0|8|9|10|40:41:32(qc=5)
REM 
CELL 1.54180    5.64264    8.59938    8.92015   90.00000   90.00000   90.00000
LATT -1
SFAC Li O  S  Fe 
Li     1 -0.3312420000000  0.2667270000000 -0.1223200000000 1.0   0.00
Li     1  0.1687580000000 -0.2667270000000  0.1223200000000 1.0   0.00
Li     1 -0.1687580000000 -0.2667270000000 -0.1223200000000 1.0   0.00
Li     1  0.3312420000000  0.2667270000000  0.1223200000000 1.0   0.00
Li     1  0.4406300000000 -0.4300440000000 -0.1114080000000 1.0   0.03
Li     1 -0.0593700000000  0.4300440000000  0.1114080000000 1.0   0.03
Li     1  0.0593700000000  0.4300440000000 -0.1114080000000 1.0   0.03
Li     1 -0.4406300000000 -0.4300440000000  0.1114080000000 1.0   0.03
Li     1  0.0000000000000 -0.0546610000000 -0.5000000000000 1.0  -0.00
Li     1  0.5000000000000  0.0546610000000  0.5000000000000 1.0  -0.00
O      2  0.2500000000000 -0.5000000000000  0.0553610000000 1.0   0.02
O      2 -0.2500000000000  0.5000000000000 -0.0553610000000 1.0   0.02
S      3 -0.1526020000000 -0.2080520000000  0.3006800000000 1.0   0.21
S      3  0.3473980000000  0.2080520000000 -0.3006800000000 1.0   0.21
S      3 -0.3473980000000  0.2080520000000  0.3006800000000 1.0   0.21
S      3  0.1526020000000 -0.2080520000000 -0.3006800000000 1.0   0.21
S      3  0.0000000000000  0.1288160000000 -0.0000000000000 1.0   0.13
S      3  0.5000000000000 -0.1288160000000  0.0000000000000 1.0   0.13
Fe     4 -0.2500000000000  0.0000000000000  0.1664400000000 1.0   3.12
Fe     4  0.2500000000000 -0.0000000000000 -0.1664400000000 1.0   3.12
END
