TITL LFSO-Li2Fe2S2O-200913-115556-56cd0c 0.0090 194.737447 -6.34502497E+003 -0.264201E-01 0.118987 14 (P-1) n - 1
REM
REM Run started: Sun, 13 Sep 2020 21:20:48 +0100 in /lustre/scratch/uccabz1/launch_tmp/launcher_2020-09-13-10-55-54-318642
REM CASTEP 20.1 from code version af48c487+ pr-geom-scf-spinfix Tue Jun 2 15:39:59 2020 +0100
REM Functional Perdew Burke Ernzerhof Relativity Koelling-Harmon Dispersion off
REM Cut-off 340.0000 eV Grid scale 1.7500 Gmax 16.5316 1/A FBSC none
REM MP grid 5 2 2 Offset 0.000 0.000 0.000 No. kpts 10 Spacing 0.07
REM Total runtime: 35855.2 s
REM Overall efficiency: 83.3077 %
REM
REM
REM
REM compiler GCC version 4.9.2
REM options -cpp -iprefix /lustre/shared/ucl/apps/gcc/4.9.2/bin/../lib/gcc/x86_64-unknown-linux-gnu/4.9.2/ -mtune=corei7 -march=x86-64 -g -Og
REM COMMAND_LINE
REM seed 1432620097 -1738932498 -717817947 -540013239 932268783 2096396303 2134455664 2094462686 -54464405 -1566443478 -857292950 1704436210
REM
REM S 3|1.8|5|6|7|30:31:32(qc=5)
REM O 2|1.5|12|13|15|20:21(qc=5)
REM Li 1|1.3|8|9|10|10U:20(qc=5)
REM Fe 3|2.2|2.0|1.0|8|9|10|40:41:32(qc=5)
REM 
CELL 1.54180    3.45119    8.11525    7.40646   82.15586  104.64590  103.15979
LATT -1
SFAC Li O  S  Fe 
Li     1  0.5941990000000 -0.5458060000000  0.2266050000000 1.0  -0.00
Li     1 -0.5941990000000  0.5458060000000 -0.2266050000000 1.0  -0.00
Li     1  0.1468790000000 -0.2758930000000  0.0295060000000 1.0   0.00
Li     1 -0.1468790000000  0.2758930000000 -0.0295060000000 1.0   0.00
O      2  0.0476190000000  0.4890900000000  0.1069000000000 1.0   0.00
O      2 -0.0476190000000 -0.4890900000000 -0.1069000000000 1.0   0.00
S      3  0.1973040000000  0.2845580000000  0.5843530000000 1.0  -0.00
S      3 -0.1973040000000 -0.2845580000000 -0.5843530000000 1.0  -0.00
S      3 -0.3853380000000 -0.1107830000000 -0.1782700000000 1.0  -0.00
S      3  0.3853380000000  0.1107830000000  0.1782700000000 1.0  -0.00
Fe     4 -0.4338440000000  0.1501900000000  0.4745080000000 1.0   0.03
Fe     4  0.4338440000000 -0.1501900000000 -0.4745080000000 1.0   0.03
Fe     4  0.0972560000000  0.0125470000000 -0.3328860000000 1.0  -0.04
Fe     4 -0.0972560000000 -0.0125470000000  0.3328860000000 1.0  -0.04
END
