TITL LFSO-LiFe3S4O-200909-093814-2c0a68 -0.0561 148.252601 -4.44391572E+003 -0.643726E-01 0.119680 9 (C2) n - 1
REM
REM Run started: Wed, 09 Sep 2020 13:10:43 +0100 in /lustre/scratch/uccabz1/launch_tmp/launcher_2020-09-09-08-38-13-247427
REM CASTEP 20.1 from code version af48c487+ pr-geom-scf-spinfix Tue Jun 2 15:39:59 2020 +0100
REM Functional Perdew Burke Ernzerhof Relativity Koelling-Harmon Dispersion off
REM Cut-off 340.0000 eV Grid scale 1.7500 Gmax 16.5316 1/A FBSC none
REM MP grid 3 4 3 Offset 0.000 0.000 0.000 No. kpts 16 Spacing 0.07
REM Total runtime: 12808.2 s
REM Overall efficiency: 95.1 %
REM
REM
REM
REM compiler GCC version 4.9.2
REM options -cpp -iprefix /lustre/shared/ucl/apps/gcc/4.9.2/bin/../lib/gcc/x86_64-unknown-linux-gnu/4.9.2/ -mtune=corei7 -march=x86-64 -g -Og
REM COMMAND_LINE
REM seed 1290298309 -1965427905 -424978390 -936296495 -760965193 787511344 -333382422 785851002 1350699825 1007855417 86782102 54661828
REM
REM S 3|1.8|5|6|7|30:31:32(qc=5)
REM O 2|1.5|12|13|15|20:21(qc=5)
REM Li 1|1.3|8|9|10|10U:20(qc=5)
REM Fe 3|2.2|2.0|1.0|8|9|10|40:41:32(qc=5)
REM 
CELL 1.54180    6.90854    5.58568    5.61461   72.29479   60.54286   51.79946
LATT -1
SFAC Li O  S  Fe 
Li     1 -0.0063340000000  0.0126680000000  0.0000000000000 1.0  -0.00
O      2  0.4450990000000  0.1098010000000  0.0000000000000 1.0   0.00
S      3  0.0670770000000  0.4336870000000 -0.2950210000000 1.0  -0.00
S      3 -0.5007640000000  0.4336870000000  0.2950210000000 1.0  -0.00
S      3 -0.1814880000000 -0.3363100000000  0.2776630000000 1.0  -0.00
S      3  0.5177980000000 -0.3363100000000 -0.2776630000000 1.0  -0.00
Fe     4  0.2125770000000  0.3958390000000  0.2624700000000 1.0  -0.04
Fe     4  0.3915840000000  0.3958390000000 -0.2624700000000 1.0  -0.04
Fe     4 -0.3447460000000 -0.3105090000000  0.0000000000000 1.0   0.02
END
