TITL LFSO-Li5FeS3O-200910-092645-3d8b7c -0.1386 495.156439 -6.42424209E+003 -7.91618 8.23893 20 (P2) n - 1
REM
REM Run started: Thu, 10 Sep 2020 15:42:10 +0100 in /lustre/scratch/uccabz1/launch_tmp/launcher_2020-09-10-14-03-16-835968
REM CASTEP 20.1 from code version af48c487+ pr-geom-scf-spinfix Tue Jun 2 15:39:59 2020 +0100
REM Functional Perdew Burke Ernzerhof Relativity Koelling-Harmon Dispersion off
REM Cut-off 340.0000 eV Grid scale 1.7500 Gmax 16.5316 1/A FBSC none
REM MP grid 4 2 2 Offset 0.000 0.000 0.000 No. kpts 4 Spacing 0.07
REM Total runtime: 22984.3 s
REM Overall efficiency: 98.2 %
REM
REM
REM
REM compiler GCC version 4.9.2
REM options -cpp -iprefix /lustre/shared/ucl/apps/gcc/4.9.2/bin/../lib/gcc/x86_64-unknown-linux-gnu/4.9.2/ -mtune=corei7 -march=x86-64 -g -Og
REM COMMAND_LINE
REM seed -1904858143 -1305928642 -257924169 -1621923238 1442258646 -242052338 -1812843541 437456339 -1611009682 -756733838 -58648405 439207119
REM
REM S 3|1.8|5|6|7|30:31:32(qc=5)
REM O 2|1.5|12|13|15|20:21(qc=5)
REM Li 1|1.3|8|9|10|10U:20(qc=5)
REM Fe 3|2.2|2.0|1.0|8|9|10|40:41:32(qc=5)
REM 
CELL 1.54180    3.81427    9.30139   14.73719   90.00000  108.73029   90.00000
LATT -1
SFAC Li O  S  Fe 
Li     1 -0.5741400000000  0.0093850000000 -0.1813600000000 1.0  -0.01
Li     1  0.5741400000000  0.0093850000000  0.1813600000000 1.0  -0.01
Li     1 -0.3800000000000  0.3480250000000  0.2897270000000 1.0  -0.03
Li     1  0.3800000000000  0.3480250000000 -0.2897270000000 1.0  -0.03
Li     1  0.1138960000000 -0.3099230000000  0.1971930000000 1.0   0.01
Li     1 -0.1138960000000 -0.3099230000000 -0.1971930000000 1.0   0.01
Li     1 -0.1184970000000  0.1686610000000 -0.2833710000000 1.0  -0.02
Li     1  0.1184970000000  0.1686610000000  0.2833710000000 1.0  -0.02
Li     1 -0.2992220000000 -0.0077990000000  0.3772680000000 1.0  -0.03
Li     1  0.2992220000000 -0.0077990000000 -0.3772680000000 1.0  -0.03
O      2 -0.3972130000000  0.1440480000000  0.2745660000000 1.0  -0.02
O      2  0.3972130000000  0.1440480000000 -0.2745660000000 1.0  -0.02
S      3  0.1574700000000 -0.1433240000000  0.3505790000000 1.0  -0.21
S      3 -0.1574700000000 -0.1433240000000 -0.3505790000000 1.0  -0.21
S      3  0.5673320000000 -0.1936720000000  0.0745300000000 1.0  -0.15
S      3 -0.5673320000000 -0.1936720000000 -0.0745300000000 1.0  -0.15
S      3 -0.1554920000000 -0.5237810000000 -0.3182340000000 1.0  -0.20
S      3  0.1554920000000 -0.5237810000000  0.3182340000000 1.0  -0.20
Fe     4 -0.1905020000000 -0.3513020000000 -0.4231670000000 1.0  -3.30
Fe     4  0.1905020000000 -0.3513020000000  0.4231670000000 1.0  -3.30
END
