TITL LFSO-Li2FeSO-200912-063601-10fb79 -0.0605 67.620713 -2.00387883E+003 4.02219 4.03537 5 (P3m1) n - 1
REM
REM Run started: Sat, 12 Sep 2020 06:45:44 +0100 in /lustre/scratch/uccabz1/launch_tmp/launcher_2020-09-12-05-36-00-088309
REM CASTEP 20.1 from code version af48c487+ pr-geom-scf-spinfix Tue Jun 2 15:39:59 2020 +0100
REM Functional Perdew Burke Ernzerhof Relativity Koelling-Harmon Dispersion off
REM Cut-off 340.0000 eV Grid scale 1.7500 Gmax 16.5316 1/A FBSC none
REM MP grid 3 5 5 Offset 0.000 0.000 0.000 No. kpts 12 Spacing 0.07
REM Total runtime: 769.67 s
REM Overall efficiency: 84.3333 %
REM
REM
REM
REM compiler GCC version 4.9.2
REM options -cpp -iprefix /lustre/shared/ucl/apps/gcc/4.9.2/bin/../lib/gcc/x86_64-unknown-linux-gnu/4.9.2/ -mtune=corei7 -march=x86-64 -g -Og
REM COMMAND_LINE
REM seed -388848525 -1623611220 298804181 1651509249 -511817743 -1682602526 1991671429 -897567684 1106972664 1117945204 -2129677629 -1179811803
REM
REM S 3|1.8|5|6|7|30:31:32(qc=5)
REM O 2|1.5|12|13|15|20:21(qc=5)
REM Li 1|1.3|8|9|10|10U:20(qc=5)
REM Fe 3|2.2|2.0|1.0|8|9|10|40:41:32(qc=5)
REM 
CELL 1.54180    5.36563    3.81473    3.81473  120.00000   90.00000   90.00000
LATT -1
SFAC Li O  S  Fe 
Li     1 -0.1516710000000  0.0000000000000  0.0000000000000 1.0  -0.07
Li     1 -0.1166680000000 -0.3333330000000  0.3333330000000 1.0   0.00
O      2  0.5050410000000  0.0000000000000  0.0000000000000 1.0   0.27
S      3  0.0043260000000  0.3333330000000 -0.3333330000000 1.0   0.08
Fe     4  0.4527470000000  0.3333330000000 -0.3333330000000 1.0   3.74
END
