TITL LFSO-Li3Fe3S2O4-200929-053357-33faa8 0.0640 328.417667 -1.10971066E+004 -11.2046 12.1311 24 (P-4) n - 1
REM
REM Run started: Tue, 29 Sep 2020 12:34:42 +0100 in /lustre/scratch/uccabz1/launch_tmp/launcher_2020-09-29-04-33-55-803205
REM CASTEP 20.1 from code version af48c487+ pr-geom-scf-spinfix Tue Jun 2 15:39:59 2020 +0100
REM Functional Perdew Burke Ernzerhof Relativity Koelling-Harmon Dispersion off
REM Cut-off 340.0000 eV Grid scale 1.7500 Gmax 16.5316 1/A FBSC none
REM MP grid 3 3 2 Offset 0.000 0.000 0.000 No. kpts 3 Spacing 0.07
REM Total runtime: 25336.6 s
REM Overall efficiency: 96.8 %
REM
REM
REM
REM compiler GCC version 4.9.2
REM options -cpp -iprefix /lustre/shared/ucl/apps/gcc/4.9.2/bin/../lib/gcc/x86_64-unknown-linux-gnu/4.9.2/ -mtune=corei7 -march=x86-64 -g -Og
REM COMMAND_LINE
REM seed -1547631825 1872508765 799288391 743398802 -1880497551 -1436637256 -895058995 -1655879307 1952672642 -1074521822 872848830 2074426086
REM
REM S 3|1.8|5|6|7|30:31:32(qc=5)
REM O 2|1.5|12|13|15|20:21(qc=5)
REM Li 1|1.3|8|9|10|10U:20(qc=5)
REM Fe 3|2.2|2.0|1.0|8|9|10|40:41:32(qc=5)
REM 
CELL 1.54180    6.62799    6.62799    7.47588   90.00000   90.00000   90.00000
LATT -1
SFAC Li O  S  Fe 
Li     1 -0.2085980000000 -0.3745040000000  0.3570430000000 1.0  -0.01
Li     1  0.2085980000000  0.3745040000000  0.3570430000000 1.0  -0.01
Li     1  0.3745040000000 -0.2085980000000 -0.3570430000000 1.0  -0.01
Li     1 -0.3745040000000  0.2085980000000 -0.3570430000000 1.0  -0.01
Li     1  0.0000000000000  0.0000000000000  0.3317590000000 1.0   0.01
Li     1  0.0000000000000  0.0000000000000 -0.3317590000000 1.0   0.01
O      2 -0.2683450000000  0.1176940000000  0.4255180000000 1.0   0.03
O      2  0.2683450000000 -0.1176940000000  0.4255180000000 1.0   0.03
O      2 -0.1176940000000 -0.2683450000000 -0.4255180000000 1.0   0.03
O      2  0.1176940000000  0.2683450000000 -0.4255180000000 1.0   0.03
O      2  0.0597130000000  0.3020120000000  0.1494010000000 1.0  -0.13
O      2 -0.0597130000000 -0.3020120000000  0.1494010000000 1.0  -0.13
O      2 -0.3020120000000  0.0597130000000 -0.1494010000000 1.0  -0.13
O      2  0.3020120000000 -0.0597130000000 -0.1494010000000 1.0  -0.13
S      3  0.3841970000000 -0.2170030000000  0.2527070000000 1.0   0.02
S      3 -0.3841970000000  0.2170030000000  0.2527070000000 1.0   0.02
S      3  0.2170030000000  0.3841970000000 -0.2527070000000 1.0   0.02
S      3 -0.2170030000000 -0.3841970000000 -0.2527070000000 1.0   0.02
Fe     4  0.1667230000000 -0.1980660000000  0.0299940000000 1.0  -2.03
Fe     4 -0.1667230000000  0.1980660000000  0.0299940000000 1.0  -2.03
Fe     4  0.1980660000000  0.1667230000000 -0.0299940000000 1.0  -2.03
Fe     4 -0.1980660000000 -0.1667230000000 -0.0299940000000 1.0  -2.03
Fe     4  0.0000000000000 -0.5000000000000 -0.0583830000000 1.0  -1.36
Fe     4 -0.5000000000000  0.0000000000000  0.0583830000000 1.0  -1.36
END
