TITL LFSO-LiFe3S4O-200909-071122-c78607 -0.0085 409.382365 -8.87313980E+003 -8.82013 14.8992 18 (Cmm2) n - 1
REM
REM Run started: Wed, 09 Sep 2020 16:49:40 +0100 in /lustre/scratch/uccabz1/launch_tmp/launcher_2020-09-09-06-11-19-995310
REM CASTEP 20.1 from code version af48c487+ pr-geom-scf-spinfix Tue Jun 2 15:39:59 2020 +0100
REM Functional Perdew Burke Ernzerhof Relativity Koelling-Harmon Dispersion off
REM Cut-off 340.0000 eV Grid scale 1.7500 Gmax 16.5316 1/A FBSC none
REM MP grid 6 2 2 Offset 0.000 0.000 0.000 No. kpts 3 Spacing 0.07
REM Total runtime: 37713.9 s
REM Overall efficiency: 96.7 %
REM
REM
REM
REM compiler GCC version 4.9.2
REM options -cpp -iprefix /lustre/shared/ucl/apps/gcc/4.9.2/bin/../lib/gcc/x86_64-unknown-linux-gnu/4.9.2/ -mtune=corei7 -march=x86-64 -g -Og
REM COMMAND_LINE
REM seed 1820099353 -355670014 1841700636 1854957298 426825946 1245392787 456693406 -588328168 111091188 -1756330388 -959095616 399373999
REM
REM S 3|1.8|5|6|7|30:31:32(qc=5)
REM O 2|1.5|12|13|15|20:21(qc=5)
REM Li 1|1.3|8|9|10|10U:20(qc=5)
REM Fe 3|2.2|2.0|1.0|8|9|10|40:41:32(qc=5)
REM 
CELL 1.54180    2.87345   11.57278   12.31082   90.00000   90.00000   90.00000
LATT -1
SFAC Li O  S  Fe 
Li     1  0.5000000000000 -0.3224100000000 -0.0000000000000 1.0   0.05
Li     1 -0.0000000000000 -0.3224100000000 -0.5000000000000 1.0   0.05
O      2  0.5000000000000 -0.1714800000000 -0.0000000000000 1.0  -0.98
O      2 -0.0000000000000 -0.1714800000000 -0.5000000000000 1.0  -0.98
S      3 -0.0000670000000  0.3567840000000  0.3834460000000 1.0   0.05
S      3  0.0000670000000  0.3567840000000 -0.3834460000000 1.0   0.05
S      3  0.5000670000000  0.3567840000000 -0.1165540000000 1.0   0.05
S      3 -0.5000670000000  0.3567840000000  0.1165540000000 1.0   0.05
S      3  0.0001880000000  0.0067600000000 -0.0761310000000 1.0  -0.07
S      3 -0.0001880000000  0.0067600000000  0.0761310000000 1.0  -0.07
S      3 -0.5001880000000  0.0067600000000  0.4238690000000 1.0  -0.07
S      3  0.5001880000000  0.0067600000000 -0.4238690000000 1.0  -0.07
Fe     4  0.4974900000000 -0.4725170000000  0.1775310000000 1.0  -2.36
Fe     4 -0.4974900000000 -0.4725170000000 -0.1775310000000 1.0  -2.36
Fe     4  0.0025100000000 -0.4725170000000 -0.3224690000000 1.0  -2.36
Fe     4 -0.0025100000000 -0.4725170000000  0.3224690000000 1.0  -2.36
Fe     4 -0.0000000000000  0.4288670000000 -0.0000000000000 1.0   1.28
Fe     4 -0.5000000000000  0.4288670000000 -0.5000000000000 1.0   1.28
END
