TITL LFSO-Li6FeSO3-200909-222923-9b9cb3 -0.0286 150.080670 -3.68150906E+003 2.00977 2.29709 11 (P-1) n - 1
REM
REM Run started: Thu, 10 Sep 2020 00:59:12 +0100 in /lustre/scratch/uccabz1/launch_tmp/launcher_2020-09-09-21-29-21-799462
REM CASTEP 20.1 from code version af48c487+ pr-geom-scf-spinfix Tue Jun 2 15:39:59 2020 +0100
REM Functional Perdew Burke Ernzerhof Relativity Koelling-Harmon Dispersion off
REM Cut-off 340.0000 eV Grid scale 1.7500 Gmax 16.5316 1/A FBSC none
REM MP grid 4 4 3 Offset 0.000 0.000 0.000 No. kpts 24 Spacing 0.07
REM Total runtime: 9871.21 s
REM Overall efficiency: 95.5556 %
REM
REM
REM
REM compiler GCC version 4.9.2
REM options -cpp -iprefix /lustre/shared/ucl/apps/gcc/4.9.2/bin/../lib/gcc/x86_64-unknown-linux-gnu/4.9.2/ -mtune=corei7 -march=x86-64 -g -Og
REM COMMAND_LINE
REM seed -1204645706 275378445 -1526757941 619825821 348940692 -1046014211 -854062248 1483476533 1640733689 -1467165779 2074069033 2112161531
REM
REM S 3|1.8|5|6|7|30:31:32(qc=5)
REM O 2|1.5|12|13|15|20:21(qc=5)
REM Li 1|1.3|8|9|10|10U:20(qc=5)
REM Fe 3|2.2|2.0|1.0|8|9|10|40:41:32(qc=5)
REM 
CELL 1.54180    5.87206    3.79342    9.35979   88.43750   46.06596   88.53733
LATT -1
SFAC Li O  S  Fe 
Li     1  0.0120240000000 -0.4258980000000 -0.2894150000000 1.0  -0.04
Li     1 -0.0120240000000  0.4258980000000  0.2894150000000 1.0  -0.04
Li     1  0.4209940000000 -0.4740000000000  0.2485670000000 1.0  -0.02
Li     1 -0.4209940000000  0.4740000000000 -0.2485670000000 1.0  -0.02
Li     1  0.2726650000000 -0.0238580000000  0.0078270000000 1.0   0.01
Li     1 -0.2726650000000  0.0238580000000 -0.0078270000000 1.0   0.01
O      2  0.2631990000000  0.0146790000000  0.2205110000000 1.0   0.05
O      2 -0.2631990000000 -0.0146790000000 -0.2205110000000 1.0   0.05
O      2  0.0000000000000  0.5000000000000 -0.5000000000000 1.0   0.10
S      3  0.0000000000000  0.5000000000000  0.0000000000000 1.0   0.00
Fe     4  0.0000000000000  0.0000000000000 -0.5000000000000 1.0   1.92
END
