TITL LFSO-Li2Fe2S2O-200913-113106-6910fc -0.1063 456.409771 -6.34722950E+003 -0.108087 1.90310 14 (Cm) n - 1
REM
REM Run started: Mon, 14 Sep 2020 22:37:25 +0100 in /lustre/scratch/uccabz1/launch_tmp/launcher_2020-09-14-12-25-14-022227
REM CASTEP 20.1 from code version af48c487+ pr-geom-scf-spinfix Tue Jun 2 15:39:59 2020 +0100
REM Functional Perdew Burke Ernzerhof Relativity Koelling-Harmon Dispersion off
REM Cut-off 340.0000 eV Grid scale 1.7500 Gmax 16.5316 1/A FBSC none
REM MP grid 5 5 5 Offset 0.000 0.000 0.000 No. kpts 39 Spacing 0.07
REM Total runtime: 115430 s
REM Overall efficiency: 84.3077 %
REM
REM
REM
REM compiler GCC version 4.9.2
REM options -cpp -iprefix /lustre/shared/ucl/apps/gcc/4.9.2/bin/../lib/gcc/x86_64-unknown-linux-gnu/4.9.2/ -mtune=corei7 -march=x86-64 -g -Og
REM COMMAND_LINE
REM seed -1558215824 -426444737 -146628894 -797498957 208696235 -1530781120 1690247212 1056475661 -370366763 -1998929231 1685562384 -1007459155
REM
REM S 3|1.8|5|6|7|30:31:32(qc=5)
REM O 2|1.5|12|13|15|20:21(qc=5)
REM Li 1|1.3|8|9|10|10U:20(qc=5)
REM Fe 3|2.2|2.0|1.0|8|9|10|40:41:32(qc=5)
REM 
CELL 1.54180   20.90600   20.90600    6.22765   81.44015   81.44015  160.25531
LATT -1
SFAC Li O  S  Fe 
Li     1 -0.4720610000000 -0.1622400000000 -0.0150520000000 1.0   0.02
Li     1 -0.1622400000000 -0.4720610000000 -0.0150520000000 1.0   0.02
Li     1  0.3530230000000  0.0020110000000 -0.1684950000000 1.0  -0.04
Li     1  0.0020110000000  0.3530230000000 -0.1684950000000 1.0  -0.04
O      2  0.3511310000000  0.0164440000000 -0.4577350000000 1.0  -0.23
O      2  0.0164440000000  0.3511310000000 -0.4577350000000 1.0  -0.23
S      3 -0.0335500000000 -0.5365810000000  0.2350910000000 1.0   0.00
S      3 -0.5365810000000 -0.0335500000000  0.2350910000000 1.0   0.00
S      3 -0.1238000000000  0.5279850000000 -0.4284490000000 1.0  -0.15
S      3  0.5279850000000 -0.1238000000000 -0.4284490000000 1.0  -0.15
Fe     4  0.0018570000000  0.3911090000000  0.2766770000000 1.0  -3.05
Fe     4  0.3911090000000  0.0018570000000  0.2766770000000 1.0  -3.05
Fe     4 -0.0536700000000 -0.5133140000000  0.5600820000000 1.0   1.94
Fe     4 -0.5133140000000 -0.0536700000000  0.5600820000000 1.0   1.94
END
