TITL LFSO-Li3Fe3S4O2-200929-205844-145255 -0.0087 428.949400 -1.05650067E+004 9.08007 20.5696 24 (P-1) n - 1
REM
REM Run started: Thu, 01 Oct 2020 08:16:00 +0100 in /lustre/scratch/uccabz1/launch_tmp/launcher_2020-09-30-09-06-37-379540
REM CASTEP 20.1 from code version af48c487+ pr-geom-scf-spinfix Tue Jun 2 15:39:59 2020 +0100
REM Functional Perdew Burke Ernzerhof Relativity Koelling-Harmon Dispersion off
REM Cut-off 340.0000 eV Grid scale 1.7500 Gmax 16.5316 1/A FBSC none
REM MP grid 3 2 3 Offset 0.000 0.000 0.000 No. kpts 9 Spacing 0.07
REM Total runtime: 157120 s
REM Overall efficiency: 80.9091 %
REM
REM
REM
REM compiler GCC version 4.9.2
REM options -cpp -iprefix /scratch/UCL/applications/gcc/4.9.2/bin/../lib/gcc/x86_64-unknown-linux-gnu/4.9.2/ -mtune=corei7 -march=x86-64 -g -O2
REM COMMAND_LINE
REM seed 719751032 517390133 1585671711 -1190652844 -2125019446 -658982956 1133577610 -32221983 1756371169 685159820 -657282261 515683070
REM
REM S 3|1.8|5|6|7|30:31:32(qc=5)
REM O 2|1.5|12|13|15|20:21(qc=5)
REM Li 1|1.3|8|9|10|10U:20(qc=5)
REM Fe 3|2.2|2.0|1.0|8|9|10|40:41:32(qc=5)
REM 
CELL 1.54180    6.07724   11.25799    8.07750   57.49927   73.98157   67.53577
LATT -1
SFAC Li O  S  Fe 
Li     1  0.3065600000000 -0.4563680000000  0.4510690000000 1.0  -0.03
Li     1 -0.3065600000000  0.4563680000000 -0.4510690000000 1.0  -0.03
Li     1 -0.1708730000000 -0.0485860000000 -0.4202080000000 1.0  -0.02
Li     1  0.1708730000000  0.0485860000000  0.4202080000000 1.0  -0.02
Li     1  0.1928550000000 -0.1507210000000  0.2495100000000 1.0   0.02
Li     1 -0.1928550000000  0.1507210000000 -0.2495100000000 1.0   0.02
O      2  0.5152460000000 -0.3410090000000  0.4028330000000 1.0   0.31
O      2 -0.5152460000000  0.3410090000000 -0.4028330000000 1.0   0.31
O      2 -0.1231630000000  0.1291690000000 -0.4747510000000 1.0   0.37
O      2  0.1231630000000 -0.1291690000000  0.4747510000000 1.0   0.37
S      3  0.3205210000000  0.0620690000000 -0.0139180000000 1.0   0.12
S      3 -0.3205210000000 -0.0620690000000  0.0139180000000 1.0   0.12
S      3  0.2202730000000 -0.4841400000000 -0.1742410000000 1.0  -0.02
S      3 -0.2202730000000  0.4841400000000  0.1742410000000 1.0  -0.02
S      3  0.1244070000000 -0.3265420000000  0.1583590000000 1.0   0.06
S      3 -0.1244070000000  0.3265420000000 -0.1583590000000 1.0   0.06
S      3  0.5628550000000 -0.2182970000000 -0.2834500000000 1.0   0.01
S      3 -0.5628550000000  0.2182970000000  0.2834500000000 1.0   0.01
Fe     4  0.3641700000000 -0.2847390000000 -0.3946800000000 1.0   3.38
Fe     4 -0.3641700000000  0.2847390000000  0.3946800000000 1.0   3.38
Fe     4  0.2561980000000  0.3078210000000 -0.1815340000000 1.0   3.08
Fe     4 -0.2561980000000 -0.3078210000000  0.1815340000000 1.0   3.08
Fe     4  0.4714080000000 -0.3870950000000  0.0010130000000 1.0  -2.74
Fe     4 -0.4714080000000  0.3870950000000 -0.0010130000000 1.0  -2.74
END
