TITL LFSO-LiFe3S2O3-200909-170324-51e3f4 0.0100 141.102379 -4.71002581E+003 -7.56910 7.78345 9 (Fmm2) n - 1
REM
REM Run started: Wed, 09 Sep 2020 18:26:29 +0100 in /lustre/scratch/uccabz1/launch_tmp/launcher_2020-09-09-16-03-23-061134
REM CASTEP 20.1 from code version af48c487+ pr-geom-scf-spinfix Tue Jun 2 15:39:59 2020 +0100
REM Functional Perdew Burke Ernzerhof Relativity Koelling-Harmon Dispersion off
REM Cut-off 340.0000 eV Grid scale 1.7500 Gmax 16.5316 1/A FBSC none
REM MP grid 4 4 3 Offset 0.000 0.000 0.000 No. kpts 16 Spacing 0.07
REM Total runtime: 5061.23 s
REM Overall efficiency: 94.2857 %
REM
REM
REM
REM compiler GCC version 4.9.2
REM options -cpp -iprefix /lustre/shared/ucl/apps/gcc/4.9.2/bin/../lib/gcc/x86_64-unknown-linux-gnu/4.9.2/ -mtune=corei7 -march=x86-64 -g -Og
REM COMMAND_LINE
REM seed -1044131540 676311037 -1810983372 -1405871897 -1852948429 73781654 1709336660 -236915161 -1396226639 274062842 -1778828661 -355625191
REM
REM S 3|1.8|5|6|7|30:31:32(qc=5)
REM O 2|1.5|12|13|15|20:21(qc=5)
REM Li 1|1.3|8|9|10|10U:20(qc=5)
REM Fe 3|2.2|2.0|1.0|8|9|10|40:41:32(qc=5)
REM 
CELL 1.54180    4.61312    4.61312    7.48190  102.28179  102.28179  108.05867
LATT -1
SFAC Li O  S  Fe 
Li     1 -0.3967020000000 -0.3967020000000  0.2065960000000 1.0   0.02
O      2  0.0563590000000 -0.4436410000000  0.1127180000000 1.0  -0.17
O      2 -0.4436410000000  0.0563590000000  0.1127180000000 1.0  -0.17
O      2  0.4636610000000  0.4636610000000 -0.0726790000000 1.0  -0.37
S      3  0.3258760000000 -0.1741240000000 -0.3482480000000 1.0  -0.13
S      3 -0.1741240000000  0.3258760000000 -0.3482480000000 1.0  -0.13
Fe     4  0.2322190000000 -0.2940200000000 -0.0618010000000 1.0  -1.88
Fe     4 -0.2940200000000  0.2322190000000 -0.0618010000000 1.0  -1.88
Fe     4 -0.1680970000000 -0.1680970000000 -0.3361950000000 1.0  -2.85
END
