TITL LFSO-Li4Fe3SO4-200930-172656-372050 -0.0439 359.019621 -1.08888215E+004 20.1085 20.7552 24 (R3) n - 1
REM
REM Run started: Thu, 01 Oct 2020 01:50:11 +0100 in /lustre/scratch/uccabz1/launch_tmp/launcher_2020-09-30-16-26-53-802840
REM CASTEP 20.1 from code version af48c487+ pr-geom-scf-spinfix Tue Jun 2 15:39:59 2020 +0100
REM Functional Perdew Burke Ernzerhof Relativity Koelling-Harmon Dispersion off
REM Cut-off 340.0000 eV Grid scale 1.7500 Gmax 16.5316 1/A FBSC none
REM MP grid 3 3 3 Offset 0.000 0.000 0.000 No. kpts 6 Spacing 0.07
REM Total runtime: 30295.7 s
REM Overall efficiency: 96.6364 %
REM
REM
REM
REM compiler GCC version 4.9.2
REM options -cpp -iprefix /lustre/shared/ucl/apps/gcc/4.9.2/bin/../lib/gcc/x86_64-unknown-linux-gnu/4.9.2/ -mtune=corei7 -march=x86-64 -g -Og
REM COMMAND_LINE
REM seed 65634306 -809365915 -60894753 -146974864 283973593 688218130 -574983596 -971725252 -1956556344 -669496693 531398009 851725878
REM
REM S 3|1.8|5|6|7|30:31:32(qc=5)
REM O 2|1.5|12|13|15|20:21(qc=5)
REM Li 1|1.3|8|9|10|10U:20(qc=5)
REM Fe 3|2.2|2.0|1.0|8|9|10|40:41:32(qc=5)
REM 
CELL 1.54180    7.20873    7.20873    7.20873   79.89904   79.89904   79.89904
LATT -1
SFAC Li O  S  Fe 
Li     1 -0.4124170000000  0.2158460000000  0.4305340000000 1.0  -0.04
Li     1  0.2158460000000  0.4305340000000 -0.4124170000000 1.0  -0.04
Li     1  0.4305340000000 -0.4124170000000  0.2158460000000 1.0  -0.04
Li     1  0.0414150000000  0.0905190000000  0.5111600000000 1.0  -0.02
Li     1  0.0905190000000  0.5111600000000  0.0414150000000 1.0  -0.02
Li     1  0.5111600000000  0.0414150000000  0.0905190000000 1.0  -0.02
Li     1 -0.0696800000000 -0.0696800000000 -0.0696800000000 1.0  -0.13
Li     1 -0.4350000000000 -0.4350000000000 -0.4350000000000 1.0   0.00
O      2 -0.2919230000000  0.1253080000000 -0.1032160000000 1.0   0.20
O      2  0.1253080000000 -0.1032160000000 -0.2919230000000 1.0   0.20
O      2 -0.1032160000000 -0.2919230000000  0.1253080000000 1.0   0.20
O      2  0.0244580000000 -0.5105690000000 -0.2057260000000 1.0   0.22
O      2 -0.5105690000000 -0.2057260000000  0.0244580000000 1.0   0.22
O      2 -0.2057260000000  0.0244580000000 -0.5105690000000 1.0   0.22
O      2 -0.5557870000000 -0.5557870000000 -0.5557870000000 1.0   0.02
O      2 -0.3103240000000 -0.3103240000000 -0.3103240000000 1.0   0.23
S      3  0.1012520000000  0.1012520000000  0.1012520000000 1.0   0.13
S      3  0.2586400000000  0.2586400000000  0.2586400000000 1.0   0.02
Fe     4  0.3027260000000 -0.1148050000000 -0.1312430000000 1.0   3.16
Fe     4 -0.1148050000000 -0.1312430000000  0.3027260000000 1.0   3.16
Fe     4 -0.1312430000000  0.3027260000000 -0.1148050000000 1.0   3.16
Fe     4 -0.0490090000000 -0.2477400000000 -0.3607320000000 1.0   3.09
Fe     4 -0.2477400000000 -0.3607320000000 -0.0490090000000 1.0   3.09
Fe     4 -0.3607320000000 -0.0490090000000 -0.2477400000000 1.0   3.09
END
