TITL LFSO-LiFeSO-200909-034357-1e35c4 0.1369 403.400828 -9.02427473E+003 -5.36414 18.1655 20 (R3) n - 1
REM
REM Run started: Thu, 10 Sep 2020 17:05:23 +0100 in /lustre/scratch/uccabz1/launch_tmp/launcher_2020-09-10-14-58-52-347917
REM CASTEP 20.1 from code version af48c487+ pr-geom-scf-spinfix Tue Jun 2 15:39:59 2020 +0100
REM Functional Perdew Burke Ernzerhof Relativity Koelling-Harmon Dispersion off
REM Cut-off 340.0000 eV Grid scale 1.7500 Gmax 16.5316 1/A FBSC none
REM MP grid 3 3 3 Offset 0.000 0.000 0.000 No. kpts 6 Spacing 0.07
REM Total runtime: 94958.8 s
REM Overall efficiency: 98.8 %
REM
REM
REM
REM compiler GCC version 4.9.2
REM options -cpp -iprefix /lustre/shared/ucl/apps/gcc/4.9.2/bin/../lib/gcc/x86_64-unknown-linux-gnu/4.9.2/ -mtune=corei7 -march=x86-64 -g -Og
REM COMMAND_LINE
REM seed -1432996007 1165637820 187881924 1882687177 1353969060 785171092 408933808 59371683 584317958 -1335663968 -2067352399 -1192212149
REM
REM S 3|1.8|5|6|7|30:31:32(qc=5)
REM O 2|1.5|12|13|15|20:21(qc=5)
REM Li 1|1.3|8|9|10|10U:20(qc=5)
REM Fe 3|2.2|2.0|1.0|8|9|10|40:41:32(qc=5)
REM 
CELL 1.54180   10.44537   10.44537   10.44537   38.86259   38.86259   38.86259
LATT -1
SFAC Li O  S  Fe 
Li     1  0.2022490000000 -0.0347320000000 -0.2840640000000 1.0   0.03
Li     1 -0.0347320000000 -0.2840640000000  0.2022490000000 1.0   0.03
Li     1 -0.2840640000000  0.2022490000000 -0.0347320000000 1.0   0.03
Li     1  0.2616360000000  0.2616360000000  0.2616360000000 1.0   0.10
Li     1 -0.3210990000000 -0.3210990000000 -0.3210990000000 1.0  -0.09
O      2 -0.1382080000000 -0.0006170000000  0.5256890000000 1.0  -0.12
O      2 -0.0006170000000  0.5256890000000 -0.1382080000000 1.0  -0.12
O      2  0.5256890000000 -0.1382080000000 -0.0006170000000 1.0  -0.12
O      2 -0.0578520000000 -0.0578520000000 -0.0578520000000 1.0  -0.04
O      2  0.1977960000000  0.1977960000000  0.1977960000000 1.0  -0.31
S      3 -0.4557180000000 -0.0644730000000  0.3886770000000 1.0   0.22
S      3 -0.0644730000000  0.3886770000000 -0.4557180000000 1.0   0.22
S      3  0.3886770000000 -0.4557180000000 -0.0644730000000 1.0   0.22
S      3  0.5097060000000  0.5097060000000  0.5097060000000 1.0   0.02
S      3 -0.1161060000000 -0.1161060000000 -0.1161060000000 1.0  -0.27
Fe     4  0.1946170000000 -0.5323660000000 -0.1103070000000 1.0  -3.58
Fe     4 -0.5323660000000 -0.1103070000000  0.1946170000000 1.0  -3.58
Fe     4 -0.1103070000000  0.1946170000000 -0.5323660000000 1.0  -3.58
Fe     4 -0.2101440000000 -0.2101440000000 -0.2101440000000 1.0   2.20
Fe     4 -0.4137630000000 -0.4137630000000 -0.4137630000000 1.0   3.40
END
