TITL LFSO-Li2Fe4S4O-200911-215553-dded45 0.0810 374.796760 -1.10171556E+004 2.68703 18.7561 22 (P21212) n - 1
REM
REM Run started: Sat, 12 Sep 2020 12:59:22 +0100 in /lustre/scratch/uccabz1/launch_tmp/launcher_2020-09-12-11-23-59-198500
REM CASTEP 20.1 from code version af48c487+ pr-geom-scf-spinfix Tue Jun 2 15:39:59 2020 +0100
REM Functional Perdew Burke Ernzerhof Relativity Koelling-Harmon Dispersion off
REM Cut-off 340.0000 eV Grid scale 1.7500 Gmax 16.5316 1/A FBSC none
REM MP grid 2 3 2 Offset 0.000 0.000 0.000 No. kpts 2 Spacing 0.07
REM Total runtime: 49872.2 s
REM Overall efficiency: 91.2 %
REM
REM
REM
REM compiler GCC version 4.9.2
REM options -cpp -iprefix /lustre/shared/ucl/apps/gcc/4.9.2/bin/../lib/gcc/x86_64-unknown-linux-gnu/4.9.2/ -mtune=corei7 -march=x86-64 -g -Og
REM COMMAND_LINE
REM seed 1229127229 1747285378 777898319 133968082 -795736957 -675492239 -806481556 -1345434718 178730486 -1833021823 -1323717368 -1780598353
REM
REM S 3|1.8|5|6|7|30:31:32(qc=5)
REM O 2|1.5|12|13|15|20:21(qc=5)
REM Li 1|1.3|8|9|10|10U:20(qc=5)
REM Fe 3|2.2|2.0|1.0|8|9|10|40:41:32(qc=5)
REM 
CELL 1.54180    8.75344    5.99445    7.14279   90.00000   90.00000   90.00000
LATT -1
SFAC Li O  S  Fe 
Li     1 -0.3852850000000 -0.0470500000000 -0.2757660000000 1.0  -0.02
Li     1 -0.3852850000000  0.0470500000000  0.2757660000000 1.0  -0.02
Li     1  0.3852850000000 -0.4529500000000  0.2242340000000 1.0  -0.02
Li     1  0.3852850000000  0.4529500000000 -0.2242340000000 1.0  -0.02
O      2  0.2926400000000 -0.5000000000000 -0.0000000000000 1.0   0.18
O      2 -0.2926400000000  0.0000000000000  0.5000000000000 1.0   0.18
S      3 -0.3368670000000 -0.4914200000000 -0.2626410000000 1.0   0.06
S      3 -0.3368670000000  0.4914200000000  0.2626410000000 1.0   0.06
S      3  0.3368670000000 -0.0085800000000  0.2373590000000 1.0   0.06
S      3  0.3368670000000  0.0085800000000 -0.2373590000000 1.0   0.06
S      3  0.0227240000000  0.2515810000000 -0.4065880000000 1.0  -0.02
S      3  0.0227240000000 -0.2515810000000  0.4065880000000 1.0  -0.02
S      3 -0.0227240000000  0.2484190000000  0.0934120000000 1.0  -0.02
S      3 -0.0227240000000 -0.2484190000000 -0.0934120000000 1.0  -0.02
Fe     4 -0.1011690000000  0.4143420000000 -0.1695490000000 1.0  -1.97
Fe     4 -0.1011690000000 -0.4143420000000  0.1695490000000 1.0  -1.97
Fe     4  0.1011690000000  0.0856580000000  0.3304510000000 1.0  -1.97
Fe     4  0.1011690000000 -0.0856580000000 -0.3304510000000 1.0  -1.97
Fe     4 -0.2187920000000  0.3008290000000 -0.4889830000000 1.0   2.54
Fe     4 -0.2187920000000 -0.3008290000000  0.4889830000000 1.0   2.54
Fe     4  0.2187920000000  0.1991710000000  0.0110170000000 1.0   2.54
Fe     4  0.2187920000000 -0.1991710000000 -0.0110170000000 1.0   2.54
END
