TITL LFSO-Li2Fe2S3O-200913-065557-5319d0 0.0619 181.107635 -3.47541347E+003 0.224603E-03 0.708086E-02 8 (R3) n - 1
REM
REM Run started: Sun, 13 Sep 2020 11:17:13 +0100 in /lustre/scratch/uccabz1/launch_tmp/launcher_2020-09-13-05-55-55-411296
REM CASTEP 20.1 from code version af48c487+ pr-geom-scf-spinfix Tue Jun 2 15:39:59 2020 +0100
REM Functional Perdew Burke Ernzerhof Relativity Koelling-Harmon Dispersion off
REM Cut-off 340.0000 eV Grid scale 1.7500 Gmax 16.5316 1/A FBSC none
REM MP grid 3 3 3 Offset 0.000 0.000 0.000 No. kpts 6 Spacing 0.07
REM Total runtime: 16396.3 s
REM Overall efficiency: 96.4444 %
REM
REM
REM
REM compiler GCC version 4.9.2
REM options -cpp -iprefix /lustre/shared/ucl/apps/gcc/4.9.2/bin/../lib/gcc/x86_64-unknown-linux-gnu/4.9.2/ -mtune=corei7 -march=x86-64 -g -Og
REM COMMAND_LINE
REM seed -2084890683 -1138877293 -2134685890 -454630119 841241468 1388334795 1843406600 242571510 -1667348774 1554020606 500331145 614749323
REM
REM S 3|1.8|5|6|7|30:31:32(qc=5)
REM O 2|1.5|12|13|15|20:21(qc=5)
REM Li 1|1.3|8|9|10|10U:20(qc=5)
REM Fe 3|2.2|2.0|1.0|8|9|10|40:41:32(qc=5)
REM 
CELL 1.54180    6.55000    6.55000    6.55000   56.17426   56.17426   56.17426
LATT -1
SFAC Li O  S  Fe 
Li     1  0.3828130000000  0.3828130000000  0.3828130000000 1.0
Li     1 -0.2321190000000 -0.2321190000000 -0.2321190000000 1.0
O      2  0.4945710000000  0.4945710000000  0.4945710000000 1.0
S      3 -0.3152040000000  0.3322540000000 -0.0533650000000 1.0
S      3  0.3322540000000 -0.0533650000000 -0.3152040000000 1.0
S      3 -0.0533650000000 -0.3152040000000  0.3322540000000 1.0
Fe     4 -0.4056680000000 -0.4056680000000 -0.4056680000000 1.0
Fe     4 -0.0434650000000 -0.0434650000000 -0.0434650000000 1.0
END
