TITL LFSO-LiFeSO-200909-033527-d8bb61 0.0060 191.854587 -5.41624553E+003 7.95219 8.45882 12 (P31) n - 1
REM
REM Run started: Wed, 09 Sep 2020 07:05:23 +0100 in /lustre/scratch/uccabz1/launch_tmp/launcher_2020-09-09-02-35-24-960010
REM CASTEP 20.1 from code version af48c487+ pr-geom-scf-spinfix Tue Jun 2 15:39:59 2020 +0100
REM Functional Perdew Burke Ernzerhof Relativity Koelling-Harmon Dispersion off
REM Cut-off 340.0000 eV Grid scale 1.7500 Gmax 16.5316 1/A FBSC none
REM MP grid 5 2 2 Offset 0.000 0.000 0.000 No. kpts 10 Spacing 0.07
REM Total runtime: 13196.1 s
REM Overall efficiency: 83.2727 %
REM
REM
REM
REM compiler GCC version 4.9.2
REM options -cpp -iprefix /lustre/shared/ucl/apps/gcc/4.9.2/bin/../lib/gcc/x86_64-unknown-linux-gnu/4.9.2/ -mtune=corei7 -march=x86-64 -g -Og
REM COMMAND_LINE
REM seed 1294261711 726319628 -528179936 -1193083329 1875569263 741908960 243470337 -856368387 1449998376 424966361 596166341 1601327191
REM
REM S 3|1.8|5|6|7|30:31:32(qc=5)
REM O 2|1.5|12|13|15|20:21(qc=5)
REM Li 1|1.3|8|9|10|10U:20(qc=5)
REM Fe 3|2.2|2.0|1.0|8|9|10|40:41:32(qc=5)
REM 
CELL 1.54180    3.10164    8.45133    8.45133  120.00000   90.00000   90.00000
LATT -1
SFAC Li O  S  Fe 
Li     1  0.3561590000000 -0.3825920000000  0.6413630000000 1.0   0.04
Li     1 -0.3105080000000 -0.6413630000000 -0.0239550000000 1.0   0.04
Li     1  0.0228260000000  0.0239550000000  0.3825920000000 1.0   0.04
O      2  0.1940830000000  0.2476490000000  0.0275480000000 1.0   0.19
O      2 -0.4725840000000 -0.0275480000000  0.2201000000000 1.0   0.19
O      2 -0.1392500000000 -0.2201000000000 -0.2476490000000 1.0   0.19
S      3 -0.4358010000000  0.0599470000000 -0.3342820000000 1.0   0.05
S      3 -0.1024680000000  0.3342820000000  0.3942290000000 1.0   0.05
S      3  0.2308650000000 -0.3942290000000 -0.0599470000000 1.0   0.05
Fe     4  0.3841980000000  0.1628420000000  0.1781140000000 1.0   2.37
Fe     4 -0.2824680000000 -0.1781140000000 -0.0152720000000 1.0   2.37
Fe     4  0.0508650000000  0.0152720000000 -0.1628420000000 1.0   2.37
END
