TITL LFSO-Li2FeSO-200912-022252-64d639 0.1106 313.738232 -8.02042227E+003 7.92210 14.3669 20 (R3) n - 1
REM
REM Run started: Sat, 12 Sep 2020 12:09:10 +0100 in /lustre/scratch/uccabz1/launch_tmp/launcher_2020-09-12-10-41-37-966940
REM CASTEP 20.1 from code version af48c487+ pr-geom-scf-spinfix Tue Jun 2 15:39:59 2020 +0100
REM Functional Perdew Burke Ernzerhof Relativity Koelling-Harmon Dispersion off
REM Cut-off 340.0000 eV Grid scale 1.7500 Gmax 16.5316 1/A FBSC none
REM MP grid 3 3 3 Offset 0.000 0.000 0.000 No. kpts 6 Spacing 0.07
REM Total runtime: 40991.5 s
REM Overall efficiency: 98.1818 %
REM
REM
REM
REM compiler GCC version 4.9.2
REM options -cpp -iprefix /lustre/shared/ucl/apps/gcc/4.9.2/bin/../lib/gcc/x86_64-unknown-linux-gnu/4.9.2/ -mtune=corei7 -march=x86-64 -g -Og
REM COMMAND_LINE
REM seed 1311680330 910155404 -2014171102 1235673214 1862228615 571012185 -72971488 -1922307801 -1539807038 1051556754 -482388627 195678388
REM
REM S 3|1.8|5|6|7|30:31:32(qc=5)
REM O 2|1.5|12|13|15|20:21(qc=5)
REM Li 1|1.3|8|9|10|10U:20(qc=5)
REM Fe 3|2.2|2.0|1.0|8|9|10|40:41:32(qc=5)
REM 
CELL 1.54180    7.21889    7.21889    7.21889   68.50144   68.50144   68.50144
LATT -1
SFAC Li O  S  Fe 
Li     1  0.5027800000000  0.4181040000000 -0.1941000000000 1.0  -0.06
Li     1  0.4181040000000 -0.1941000000000  0.5027800000000 1.0  -0.06
Li     1 -0.1941000000000  0.5027800000000  0.4181040000000 1.0  -0.06
Li     1  0.4003480000000  0.0326810000000 -0.1470150000000 1.0  -0.03
Li     1  0.0326810000000 -0.1470150000000  0.4003480000000 1.0  -0.03
Li     1 -0.1470150000000  0.4003480000000  0.0326810000000 1.0  -0.03
Li     1 -0.2853200000000 -0.2853200000000 -0.2853200000000 1.0   0.12
Li     1  0.4315830000000  0.4315830000000  0.4315830000000 1.0   0.05
O      2 -0.5560320000000  0.1697190000000  0.0012730000000 1.0   0.05
O      2  0.1697190000000  0.0012730000000 -0.5560320000000 1.0   0.05
O      2  0.0012730000000 -0.5560320000000  0.1697190000000 1.0   0.05
O      2 -0.4597360000000 -0.4597360000000 -0.4597360000000 1.0   0.04
S      3 -0.3458890000000  0.0309300000000  0.4411420000000 1.0   0.16
S      3  0.0309300000000  0.4411420000000 -0.3458890000000 1.0   0.16
S      3  0.4411420000000 -0.3458890000000  0.0309300000000 1.0   0.16
S      3 -0.1202650000000 -0.1202650000000 -0.1202650000000 1.0   0.25
Fe     4  0.0356330000000  0.1328520000000 -0.3469480000000 1.0   3.41
Fe     4  0.1328520000000 -0.3469480000000  0.0356330000000 1.0   3.41
Fe     4 -0.3469480000000  0.0356330000000  0.1328520000000 1.0   3.41
Fe     4  0.2226550000000  0.2226550000000  0.2226550000000 1.0  -3.11
END
