TITL LFSO-Li4Fe3S2O3-200928-011549-f40803 0.5496 395.306566 -1.06230477E+004 -16.0061 17.1046 24 (Ima2) n - 1
REM
REM Run started: Tue, 29 Sep 2020 19:11:39 +0100 in /scratch/scratch/uccabz1/launch_tmp/launcher_2020-09-28-00-15-46-712731
REM CASTEP 19.11| from code version Version unavailable
REM Functional Perdew Burke Ernzerhof Relativity Koelling-Harmon Dispersion off
REM Cut-off 340.0000 eV Grid scale 1.7500 Gmax 16.5316 1/A FBSC none
REM MP grid 3 2 2 Offset 0.000 0.000 0.000 No. kpts 5 Spacing 0.07
REM Total runtime: 120670 s
REM Overall efficiency: 83.5 %
REM
REM
REM
REM compiler GCC version 4.9.2
REM options -cpp -iprefix /scratch/UCL/applications/gcc/4.9.2/bin/../lib/gcc/x86_64-unknown-linux-gnu/4.9.2/ -mtune=corei7 -march=x86-64 -g -O2
REM COMMAND_LINE
REM seed -1653049328 1441598411 -1260533707 -222136072 97504211 -1245555451 -885155128 -1194236321 415176088 268505687 -1657401787 -815931478
REM
REM S 3|1.8|5|6|7|30:31:32(qc=5)
REM O 2|1.5|12|13|15|20:21(qc=5)
REM Li 1|1.3|8|9|10|10U:20(qc=5)
REM Fe 3|2.2|2.0|1.0|8|9|10|40:41:32(qc=5)
REM 
CELL 1.54180    6.11397    9.03707    9.03707   59.25309   70.22842   70.22842
LATT -1
SFAC Li O  S  Fe 
Li     1  0.2088730000000 -0.1942170000000 -0.1191600000000 1.0   0.09
Li     1 -0.2088730000000  0.1191600000000  0.1942170000000 1.0   0.09
Li     1  0.6045040000000  0.3057830000000  0.3808400000000 1.0   0.09
Li     1 -0.6045040000000 -0.3808400000000 -0.3057830000000 1.0   0.09
Li     1  0.2381840000000 -0.5378820000000  0.2457620000000 1.0   0.05
Li     1 -0.2381840000000 -0.2457620000000  0.5378820000000 1.0   0.05
Li     1  0.5539360000000 -0.0378820000000 -0.2542380000000 1.0   0.05
Li     1 -0.5539360000000  0.2542380000000  0.0378820000000 1.0   0.05
O      2 -0.0927500000000 -0.1198130000000  0.3006950000000 1.0  -0.12
O      2  0.0927500000000 -0.3006950000000  0.1198130000000 1.0  -0.12
O      2  0.4118680000000  0.3801870000000 -0.1993050000000 1.0  -0.12
O      2 -0.4118680000000  0.1993050000000 -0.3801870000000 1.0  -0.12
O      2 -0.4485690000000  0.3223210000000  0.1776790000000 1.0  -0.17
O      2  0.4485690000000 -0.1776790000000 -0.3223210000000 1.0  -0.17
S      3 -0.3970730000000 -0.2576400000000  0.0498910000000 1.0   0.03
S      3  0.3970730000000 -0.0498910000000  0.2576400000000 1.0   0.03
S      3  0.1048230000000  0.2423600000000  0.5498910000000 1.0   0.03
S      3 -0.1048230000000 -0.5498910000000 -0.2423600000000 1.0   0.03
Fe     4  0.2186020000000 -0.1888640000000  0.1902270000000 1.0  -2.33
Fe     4 -0.2186020000000 -0.1902270000000  0.1888640000000 1.0  -2.33
Fe     4  0.2800360000000  0.3111360000000 -0.3097730000000 1.0  -2.33
Fe     4 -0.2800360000000  0.3097730000000 -0.3111360000000 1.0  -2.33
Fe     4  0.7129920000000 -0.4994400000000 -0.0005600000000 1.0  -3.27
Fe     4 -0.7129920000000  0.0005600000000  0.4994400000000 1.0  -3.27
END
