TITL LFSO-Li2Fe3SO3-200912-152425-6390b3 -0.0129 110.763804 -4.60828188E+003 10.0983 10.2228 9 (P2/m) n - 1
REM
REM Run started: Sat, 12 Sep 2020 17:10:18 +0100 in /lustre/scratch/uccabz1/launch_tmp/launcher_2020-09-12-14-24-24-234023
REM CASTEP 20.1 from code version af48c487+ pr-geom-scf-spinfix Tue Jun 2 15:39:59 2020 +0100
REM Functional Perdew Burke Ernzerhof Relativity Koelling-Harmon Dispersion off
REM Cut-off 340.0000 eV Grid scale 1.7500 Gmax 16.5316 1/A FBSC none
REM MP grid 6 4 2 Offset 0.000 0.000 0.000 No. kpts 12 Spacing 0.07
REM Total runtime: 6732.64 s
REM Overall efficiency: 95.375 %
REM
REM
REM
REM compiler GCC version 4.9.2
REM options -cpp -iprefix /lustre/shared/ucl/apps/gcc/4.9.2/bin/../lib/gcc/x86_64-unknown-linux-gnu/4.9.2/ -mtune=corei7 -march=x86-64 -g -Og
REM COMMAND_LINE
REM seed -1084461461 -1571894507 2069914254 -996139183 1133145444 -1303197789 1782961294 -1488992987 -656420182 -1848966094 -1555245111 -214003292
REM
REM S 3|1.8|5|6|7|30:31:32(qc=5)
REM O 2|1.5|12|13|15|20:21(qc=5)
REM Li 1|1.3|8|9|10|10U:20(qc=5)
REM Fe 3|2.2|2.0|1.0|8|9|10|40:41:32(qc=5)
REM 
CELL 1.54180    3.90603    5.44215    7.60156   90.00000   90.00000  136.72732
LATT -1
SFAC Li O  S  Fe 
Li     1 -0.3789630000000  0.0339050000000  0.2506070000000 1.0  -0.05
Li     1 -0.3789630000000  0.0339050000000 -0.2506070000000 1.0  -0.05
O      2  0.1215220000000  0.0356010000000  0.2493740000000 1.0   0.19
O      2  0.1215220000000  0.0356010000000 -0.2493740000000 1.0   0.19
O      2 -0.3684390000000  0.0458560000000 -0.5000000000000 1.0   0.24
S      3  0.1203250000000 -0.4649980000000  0.0000000000000 1.0   0.27
Fe     4 -0.3784490000000 -0.4639510000000 -0.1729910000000 1.0   3.23
Fe     4 -0.3784490000000 -0.4639510000000  0.1729910000000 1.0   3.23
Fe     4  0.1293560000000  0.0434360000000 -0.5000000000000 1.0   2.84
END
