TITL LFSO-Li6FeSO3-200909-224957-2c0aad -0.1926 351.205641 -7.35882494E+003 -8.02501 8.70350 22 (P3) n - 1
REM
REM Run started: Thu, 10 Sep 2020 14:06:58 +0100 in /lustre/scratch/uccabz1/launch_tmp/launcher_2020-09-10-10-38-53-943973
REM CASTEP 20.1 from code version af48c487+ pr-geom-scf-spinfix Tue Jun 2 15:39:59 2020 +0100
REM Functional Perdew Burke Ernzerhof Relativity Koelling-Harmon Dispersion off
REM Cut-off 340.0000 eV Grid scale 1.7500 Gmax 16.5316 1/A FBSC none
REM MP grid 3 3 2 Offset 0.000 0.000 0.000 No. kpts 5 Spacing 0.07
REM Total runtime: 28381.5 s
REM Overall efficiency: 74.3077 %
REM
REM
REM
REM compiler GCC version 4.9.2
REM options -cpp -iprefix /lustre/shared/ucl/apps/gcc/4.9.2/bin/../lib/gcc/x86_64-unknown-linux-gnu/4.9.2/ -mtune=corei7 -march=x86-64 -g -Og
REM COMMAND_LINE
REM seed 1049428165 997833468 -997790451 226980236 -1517677385 1838986407 -1155024188 1625719671 41705905 2013268152 -1056963667 540867538
REM
REM S 3|1.8|5|6|7|30:31:32(qc=5)
REM O 2|1.5|12|13|15|20:21(qc=5)
REM Li 1|1.3|8|9|10|10U:20(qc=5)
REM Fe 3|2.2|2.0|1.0|8|9|10|40:41:32(qc=5)
REM 
CELL 1.54180    5.99649    5.99649   11.27812   90.00000   90.00000  120.00000
LATT -1
SFAC Li O  S  Fe 
Li     1  0.3573550000000  0.0428080000000 -0.1687420000000 1.0   0.05
Li     1 -0.0428080000000  0.3145460000000 -0.1687420000000 1.0   0.05
Li     1 -0.3145460000000 -0.3573550000000 -0.1687420000000 1.0   0.05
Li     1  0.3011130000000  0.2987450000000  0.3253940000000 1.0   0.05
Li     1 -0.2987450000000  0.0023680000000  0.3253940000000 1.0   0.05
Li     1 -0.0023680000000 -0.3011130000000  0.3253940000000 1.0   0.05
Li     1  0.4493340000000 -0.0130000000000  0.0472600000000 1.0   0.01
Li     1  0.0130000000000  0.4623350000000  0.0472600000000 1.0   0.01
Li     1 -0.4623350000000 -0.4493340000000  0.0472600000000 1.0   0.01
Li     1 -0.3217490000000 -0.0776440000000 -0.3777780000000 1.0  -0.02
Li     1  0.0776440000000 -0.2441050000000 -0.3777780000000 1.0  -0.02
Li     1  0.2441050000000  0.3217490000000 -0.3777780000000 1.0  -0.02
O      2 -0.0330460000000 -0.3202110000000 -0.0495020000000 1.0  -0.24
O      2  0.3202110000000  0.2871640000000 -0.0495020000000 1.0  -0.24
O      2 -0.2871640000000  0.0330460000000 -0.0495020000000 1.0  -0.24
O      2 -0.3618730000000 -0.3846340000000 -0.3300460000000 1.0  -0.24
O      2  0.3846340000000  0.0227610000000 -0.3300460000000 1.0  -0.24
O      2 -0.0227610000000  0.3618730000000 -0.3300460000000 1.0  -0.24
S      3 -0.0000000000000 -0.0000000000000  0.4453100000000 1.0   0.01
S      3  0.3333330000000 -0.3333330000000  0.2251650000000 1.0   0.01
Fe     4 -0.0000000000000 -0.0000000000000 -0.0203880000000 1.0  -3.45
Fe     4 -0.3333330000000  0.3333330000000  0.6349770000000 1.0  -3.42
END
