TITL LFSO-Li2Fe4S4O-200911-205920-d902bd -0.0095 204.932395 -5.50777734E+003 -7.97194 8.33286 11 (Cm) n - 1
REM
REM Run started: Sat, 12 Sep 2020 01:43:13 +0100 in /lustre/scratch/uccabz1/launch_tmp/launcher_2020-09-11-19-59-18-424018
REM CASTEP 20.1 from code version af48c487+ pr-geom-scf-spinfix Tue Jun 2 15:39:59 2020 +0100
REM Functional Perdew Burke Ernzerhof Relativity Koelling-Harmon Dispersion off
REM Cut-off 340.0000 eV Grid scale 1.7500 Gmax 16.5316 1/A FBSC none
REM MP grid 4 3 3 Offset 0.000 0.000 0.000 No. kpts 12 Spacing 0.07
REM Total runtime: 17265.7 s
REM Overall efficiency: 97.5556 %
REM
REM
REM
REM compiler GCC version 4.9.2
REM options -cpp -iprefix /lustre/shared/ucl/apps/gcc/4.9.2/bin/../lib/gcc/x86_64-unknown-linux-gnu/4.9.2/ -mtune=corei7 -march=x86-64 -g -Og
REM COMMAND_LINE
REM seed 680806827 1149883625 -1870234933 2044528959 185668095 564603248 -1830996153 19944662 757274837 1373028215 -1195810664 1170310663
REM
REM S 3|1.8|5|6|7|30:31:32(qc=5)
REM O 2|1.5|12|13|15|20:21(qc=5)
REM Li 1|1.3|8|9|10|10U:20(qc=5)
REM Fe 3|2.2|2.0|1.0|8|9|10|40:41:32(qc=5)
REM 
CELL 1.54180    3.84070    7.68898    7.68898   66.40779   98.34346   98.34346
LATT -1
SFAC Li O  S  Fe 
Li     1  0.4592080000000 -0.1542410000000  0.1856070000000 1.0   0.01
Li     1  0.4592080000000  0.1856070000000 -0.1542410000000 1.0   0.01
O      2  0.2060400000000 -0.0618750000000 -0.0618750000000 1.0  -0.28
S      3 -0.3732070000000  0.5694180000000  0.1308230000000 1.0  -0.06
S      3 -0.3732070000000  0.1308230000000  0.5694180000000 1.0  -0.06
S      3 -0.0002020000000 -0.1687000000000  0.4412970000000 1.0   0.01
S      3 -0.0002020000000  0.4412970000000 -0.1687000000000 1.0   0.01
Fe     4 -0.4611520000000 -0.4285380000000 -0.1634900000000 1.0  -1.30
Fe     4 -0.4611520000000 -0.1634900000000 -0.4285380000000 1.0  -1.30
Fe     4  0.1085440000000 -0.3189070000000 -0.0396390000000 1.0  -2.51
Fe     4  0.1085440000000 -0.0396390000000 -0.3189070000000 1.0  -2.51
END
