TITL LFSO-Li5FeS3O-200910-102156-4b96f3 0.0801 321.167799 -3.21094984E+003 3.46032 3.68731 10 (Amm2) n - 1
REM
REM Run started: Thu, 10 Sep 2020 14:10:11 +0100 in /lustre/scratch/uccabz1/launch_tmp/launcher_2020-09-10-09-21-51-392472
REM CASTEP 20.1 from code version af48c487+ pr-geom-scf-spinfix Tue Jun 2 15:39:59 2020 +0100
REM Functional Perdew Burke Ernzerhof Relativity Koelling-Harmon Dispersion off
REM Cut-off 340.0000 eV Grid scale 1.7500 Gmax 16.5316 1/A FBSC none
REM MP grid 3 3 3 Offset 0.000 0.000 0.000 No. kpts 8 Spacing 0.07
REM Total runtime: 15589.6 s
REM Overall efficiency: 96.9167 %
REM
REM
REM
REM compiler GCC version 4.9.2
REM options -cpp -iprefix /lustre/shared/ucl/apps/gcc/4.9.2/bin/../lib/gcc/x86_64-unknown-linux-gnu/4.9.2/ -mtune=corei7 -march=x86-64 -g -Og
REM COMMAND_LINE
REM seed -1413883089 286147669 -673048976 -1377404121 -321350865 929003865 -1630123170 -1237975276 -136265482 -1032697969 573758784 -2064998157
REM
REM S 3|1.8|5|6|7|30:31:32(qc=5)
REM O 2|1.5|12|13|15|20:21(qc=5)
REM Li 1|1.3|8|9|10|10U:20(qc=5)
REM Fe 3|2.2|2.0|1.0|8|9|10|40:41:32(qc=5)
REM 
CELL 1.54180    6.30461    7.54672    7.54672   63.43835   90.00000   90.00000
LATT -1
SFAC Li O  S  Fe 
Li     1 -0.2147390000000 -0.3407650000000  0.3503330000000 1.0   0.02
Li     1  0.2147390000000  0.3503330000000 -0.3407650000000 1.0   0.02
Li     1 -0.2147390000000  0.3503330000000 -0.3407650000000 1.0   0.02
Li     1  0.2147390000000 -0.3407650000000  0.3503330000000 1.0   0.02
Li     1 -0.5000000000000  0.0879850000000  0.0879850000000 1.0   0.05
O      2  0.0000000000000  0.4904330000000  0.4904330000000 1.0   0.00
S      3  0.5000000000000 -0.1634970000000  0.4099250000000 1.0   0.10
S      3  0.5000000000000  0.4099250000000 -0.1634970000000 1.0   0.10
S      3 -0.5000000000000 -0.1013560000000 -0.1013560000000 1.0   0.10
Fe     4  0.5000000000000 -0.2674320000000 -0.2674320000000 1.0   3.03
END
