TITL LFSO-Li2Fe4S3O2-200912-055052-92de62 -0.0436 312.031932 -1.12807633E+004 -2.29056 2.60111 22 (Pmn21) n - 1
REM
REM Run started: Sat, 12 Sep 2020 19:51:56 +0100 in /lustre/scratch/uccabz1/launch_tmp/launcher_2020-09-12-04-50-50-430681
REM CASTEP 20.1 from code version af48c487+ pr-geom-scf-spinfix Tue Jun 2 15:39:59 2020 +0100
REM Functional Perdew Burke Ernzerhof Relativity Koelling-Harmon Dispersion off
REM Cut-off 340.0000 eV Grid scale 1.7500 Gmax 16.5316 1/A FBSC none
REM MP grid 3 3 2 Offset 0.000 0.000 0.000 No. kpts 4 Spacing 0.07
REM Total runtime: 50679 s
REM Overall efficiency: 97.8182 %
REM
REM
REM
REM compiler GCC version 4.9.2
REM options -cpp -iprefix /lustre/shared/ucl/apps/gcc/4.9.2/bin/../lib/gcc/x86_64-unknown-linux-gnu/4.9.2/ -mtune=corei7 -march=x86-64 -g -Og
REM COMMAND_LINE
REM seed 741983905 738892843 -1070129319 -601245011 -1031885452 -371976900 1021747263 670931081 -1583609285 1125315882 -1148211052 723776039
REM
REM S 3|1.8|5|6|7|30:31:32(qc=5)
REM O 2|1.5|12|13|15|20:21(qc=5)
REM Li 1|1.3|8|9|10|10U:20(qc=5)
REM Fe 3|2.2|2.0|1.0|8|9|10|40:41:32(qc=5)
REM 
CELL 1.54180    5.31349    6.34797    9.25091   90.00000   90.00000   90.00000
LATT -1
SFAC Li O  S  Fe 
Li     1  0.4866500000000  0.2596840000000 -0.2296630000000 1.0  -0.00
Li     1 -0.0133500000000  0.2403160000000  0.2296630000000 1.0  -0.00
Li     1 -0.0133500000000 -0.2403160000000  0.2296630000000 1.0  -0.00
Li     1  0.4866500000000 -0.2596840000000 -0.2296630000000 1.0  -0.00
O      2  0.3341650000000  0.2599090000000 -0.0494790000000 1.0  -0.03
O      2 -0.1658350000000  0.2400910000000  0.0494790000000 1.0  -0.03
O      2 -0.1658350000000 -0.2400910000000  0.0494790000000 1.0  -0.03
O      2  0.3341650000000 -0.2599090000000 -0.0494790000000 1.0  -0.03
S      3 -0.0361720000000  0.2611520000000 -0.3115260000000 1.0   0.01
S      3  0.4638280000000  0.2388480000000  0.3115260000000 1.0   0.01
S      3  0.4638280000000 -0.2388480000000  0.3115260000000 1.0   0.01
S      3 -0.0361720000000 -0.2611520000000 -0.3115260000000 1.0   0.01
S      3 -0.0575330000000  0.5000000000000  0.4054150000000 1.0   0.00
S      3 -0.5575330000000 -0.0000000000000 -0.4054150000000 1.0   0.00
Fe     4 -0.2764500000000 -0.2177680000000 -0.5003430000000 1.0  -0.02
Fe     4  0.2235500000000 -0.2822320000000  0.5003430000000 1.0  -0.02
Fe     4  0.2235500000000  0.2822320000000  0.5003430000000 1.0  -0.02
Fe     4 -0.2764500000000  0.2177680000000 -0.5003430000000 1.0  -0.02
Fe     4  0.0310790000000 -0.1650510000000 -0.0947980000000 1.0  -0.52
Fe     4 -0.4689210000000 -0.3349490000000  0.0947980000000 1.0  -0.52
Fe     4 -0.4689210000000  0.3349490000000  0.0947980000000 1.0  -0.52
Fe     4  0.0310790000000  0.1650510000000 -0.0947980000000 1.0  -0.52
END
