TITL LFSO-Li2Fe4S3O2-200912-041801-acb536 -0.0466 206.407377 -5.64027417E+003 -14.6548 14.7595 11 (Pm) n - 1
REM
REM Run started: Sat, 12 Sep 2020 07:34:04 +0100 in /lustre/scratch/uccabz1/launch_tmp/launcher_2020-09-12-06-28-12-437518
REM CASTEP 20.1 from code version af48c487+ pr-geom-scf-spinfix Tue Jun 2 15:39:59 2020 +0100
REM Functional Perdew Burke Ernzerhof Relativity Koelling-Harmon Dispersion off
REM Cut-off 340.0000 eV Grid scale 1.7500 Gmax 16.5316 1/A FBSC none
REM MP grid 5 3 2 Offset 0.000 0.000 0.000 No. kpts 8 Spacing 0.07
REM Total runtime: 11436.1 s
REM Overall efficiency: 93.8889 %
REM
REM
REM
REM compiler GCC version 4.9.2
REM options -cpp -iprefix /lustre/shared/ucl/apps/gcc/4.9.2/bin/../lib/gcc/x86_64-unknown-linux-gnu/4.9.2/ -mtune=corei7 -march=x86-64 -g -Og
REM COMMAND_LINE
REM seed -500674863 533489653 -929163021 436769869 777444764 2003646767 -946552441 -1180396024 939378466 -279411169 -472521860 709746477
REM
REM S 3|1.8|5|6|7|30:31:32(qc=5)
REM O 2|1.5|12|13|15|20:21(qc=5)
REM Li 1|1.3|8|9|10|10U:20(qc=5)
REM Fe 3|2.2|2.0|1.0|8|9|10|40:41:32(qc=5)
REM 
CELL 1.54180    3.50798    6.37250    9.49694   90.00000   90.00000  103.53134
LATT -1
SFAC Li O  S  Fe 
Li     1 -0.4827450000000  0.1219670000000 -0.1568490000000 1.0  -0.02
Li     1 -0.4827450000000  0.1219670000000  0.1568490000000 1.0  -0.02
O      2  0.5492380000000  0.2660950000000 -0.3341840000000 1.0  -0.32
O      2  0.5492380000000  0.2660950000000  0.3341840000000 1.0  -0.32
S      3 -0.2375610000000 -0.2126600000000 -0.2193240000000 1.0  -0.30
S      3 -0.2375610000000 -0.2126600000000  0.2193240000000 1.0  -0.30
S      3  0.0810630000000  0.3055420000000  0.0000000000000 1.0  -0.20
Fe     4  0.0730290000000  0.3226500000000  0.3620810000000 1.0  -3.33
Fe     4  0.0730290000000  0.3226500000000 -0.3620810000000 1.0  -3.33
Fe     4  0.1810820000000 -0.4054820000000  0.1488460000000 1.0  -3.26
Fe     4  0.1810820000000 -0.4054820000000 -0.1488460000000 1.0  -3.26
END
