TITL LFSO-Li4FeSO2-200910-074203-2db619 -0.0461 101.873200 -2.83890848E+003 3.58756 3.77064 8 (Fmm2) n - 1
REM
REM Run started: Thu, 10 Sep 2020 13:07:14 +0100 in /lustre/scratch/uccabz1/launch_tmp/launcher_2020-09-10-06-42-01-876937
REM CASTEP 20.1 from code version af48c487+ pr-geom-scf-spinfix Tue Jun 2 15:39:59 2020 +0100
REM Functional Perdew Burke Ernzerhof Relativity Koelling-Harmon Dispersion off
REM Cut-off 340.0000 eV Grid scale 1.7500 Gmax 16.5316 1/A FBSC none
REM MP grid 4 4 6 Offset 0.000 0.000 0.000 No. kpts 28 Spacing 0.07
REM Total runtime: 21276.5 s
REM Overall efficiency: 97 %
REM
REM
REM
REM compiler GCC version 4.9.2
REM options -cpp -iprefix /lustre/shared/ucl/apps/gcc/4.9.2/bin/../lib/gcc/x86_64-unknown-linux-gnu/4.9.2/ -mtune=corei7 -march=x86-64 -g -Og
REM COMMAND_LINE
REM seed -314989754 -2014505318 1536052490 -454206324 437716884 148672259 446735297 -707820737 -609043590 1676854320 618176934 -125186056
REM
REM S 3|1.8|5|6|7|30:31:32(qc=5)
REM O 2|1.5|12|13|15|20:21(qc=5)
REM Li 1|1.3|8|9|10|10U:20(qc=5)
REM Fe 3|2.2|2.0|1.0|8|9|10|40:41:32(qc=5)
REM 
CELL 1.54180    7.57490    7.57490    3.79541  102.14552  102.14552  142.10731
LATT -1
SFAC Li O  S  Fe 
Li     1  0.1919190000000  0.5382980000000  0.2456570000000 1.0  -0.06
Li     1  0.0537380000000 -0.2926410000000  0.2456570000000 1.0  -0.06
Li     1 -0.2926410000000  0.0537380000000  0.2456570000000 1.0  -0.06
Li     1  0.5382980000000  0.1919190000000  0.2456570000000 1.0  -0.06
O      2  0.3725390000000 -0.1274610000000 -0.2549230000000 1.0   0.26
O      2 -0.1274610000000  0.3725390000000 -0.2549230000000 1.0   0.26
S      3  0.0613390000000  0.0613390000000  0.1226780000000 1.0   0.13
Fe     4 -0.5456600000000 -0.5456600000000 -0.0913200000000 1.0   3.19
END
