TITL LFSO-Li3FeSO2-200911-152346-6459e8 -0.0100 102.122044 -2.64258041E+003 4.45852 4.49464 7 (P2) n - 1
REM
REM Run started: Fri, 11 Sep 2020 15:51:38 +0100 in /lustre/scratch/uccabz1/launch_tmp/launcher_2020-09-11-14-23-43-797074
REM CASTEP 20.1 from code version af48c487+ pr-geom-scf-spinfix Tue Jun 2 15:39:59 2020 +0100
REM Functional Perdew Burke Ernzerhof Relativity Koelling-Harmon Dispersion off
REM Cut-off 340.0000 eV Grid scale 1.7500 Gmax 16.5316 1/A FBSC none
REM MP grid 5 3 3 Offset 0.000 0.000 0.000 No. kpts 16 Spacing 0.07
REM Total runtime: 1837.95 s
REM Overall efficiency: 89.875 %
REM
REM
REM
REM compiler GCC version 4.9.2
REM options -cpp -iprefix /lustre/shared/ucl/apps/gcc/4.9.2/bin/../lib/gcc/x86_64-unknown-linux-gnu/4.9.2/ -mtune=corei7 -march=x86-64 -g -Og
REM COMMAND_LINE
REM seed 141047938 1589782942 1497693838 1412095681 1728797575 -819061955 -1936287815 -1250901296 -1061597620 1388364699 1563991644 -1131532679
REM
REM S 3|1.8|5|6|7|30:31:32(qc=5)
REM O 2|1.5|12|13|15|20:21(qc=5)
REM Li 1|1.3|8|9|10|10U:20(qc=5)
REM Fe 3|2.2|2.0|1.0|8|9|10|40:41:32(qc=5)
REM 
CELL 1.54180    3.01743    5.97993    5.81764   90.00000  103.38532   90.00000
LATT -1
SFAC Li O  S  Fe 
Li     1  0.0943280000000 -0.4879570000000 -0.2713040000000 1.0   0.02
Li     1 -0.0943280000000 -0.4879570000000  0.2713040000000 1.0   0.02
Li     1  0.5000000000000  0.1198720000000  0.0000000000000 1.0  -0.01
O      2 -0.0301910000000  0.2036760000000  0.2602710000000 1.0   0.30
O      2  0.0301910000000  0.2036760000000 -0.2602710000000 1.0   0.30
S      3 -0.5000000000000 -0.2715920000000 -0.5000000000000 1.0   0.06
Fe     4 -0.5000000000000  0.1262710000000  0.5000000000000 1.0   3.77
END
