TITL LFSO-Li3FeSO2-200911-143136-66767e 0.0000 102.821157 -2.64255579E+003 3.00129 3.22293 7 (Fmm2) n - 1
REM
REM Run started: Fri, 11 Sep 2020 14:54:19 +0100 in /lustre/scratch/uccabz1/launch_tmp/launcher_2020-09-11-13-31-34-759125
REM CASTEP 20.1 from code version af48c487+ pr-geom-scf-spinfix Tue Jun 2 15:39:59 2020 +0100
REM Functional Perdew Burke Ernzerhof Relativity Koelling-Harmon Dispersion off
REM Cut-off 340.0000 eV Grid scale 1.7500 Gmax 16.5316 1/A FBSC none
REM MP grid 4 4 3 Offset 0.000 0.000 0.000 No. kpts 16 Spacing 0.07
REM Total runtime: 1511.21 s
REM Overall efficiency: 89 %
REM
REM
REM
REM compiler GCC version 4.9.2
REM options -cpp -iprefix /lustre/shared/ucl/apps/gcc/4.9.2/bin/../lib/gcc/x86_64-unknown-linux-gnu/4.9.2/ -mtune=corei7 -march=x86-64 -g -Og
REM COMMAND_LINE
REM seed 671874458 -815495664 1910864401 1577583898 1649558735 -2143272096 -1562048414 696118045 -1955471756 202151469 -1571512670 -654721150
REM
REM S 3|1.8|5|6|7|30:31:32(qc=5)
REM O 2|1.5|12|13|15|20:21(qc=5)
REM Li 1|1.3|8|9|10|10U:20(qc=5)
REM Fe 3|2.2|2.0|1.0|8|9|10|40:41:32(qc=5)
REM 
CELL 1.54180    4.10996    4.10996    6.86041  109.61476  109.61476   83.06796
LATT -1
SFAC Li O  S  Fe 
Li     1  0.0436610000000  0.0436610000000  0.5040020000000 1.0   0.05
Li     1  0.4603410000000  0.4603410000000  0.5040020000000 1.0   0.05
Li     1  0.0612050000000  0.0612050000000  0.1224110000000 1.0  -0.10
O      2  0.4376910000000 -0.0609450000000  0.3767460000000 1.0   0.20
O      2 -0.0609450000000  0.4376910000000  0.3767460000000 1.0   0.20
S      3  0.4298000000000  0.4298000000000 -0.1404000000000 1.0   0.08
Fe     4 -0.4002330000000 -0.4002330000000  0.1995330000000 1.0   2.51
END
