TITL LFSO-Li4FeS2O-200910-120209-7815ec 0.0421 281.527127 -5.41870277E+003 8.00000 8.22643 16 (Cc) n - 1
REM
REM Run started: Fri, 11 Sep 2020 00:59:42 +0100 in /lustre/scratch/uccabz1/launch_tmp/launcher_2020-09-10-11-02-07-742413
REM CASTEP 20.1 from code version af48c487+ pr-geom-scf-spinfix Tue Jun 2 15:39:59 2020 +0100
REM Functional Perdew Burke Ernzerhof Relativity Koelling-Harmon Dispersion off
REM Cut-off 340.0000 eV Grid scale 1.7500 Gmax 16.5316 1/A FBSC none
REM MP grid 3 3 4 Offset 0.000 0.000 0.000 No. kpts 18 Spacing 0.07
REM Total runtime: 49384.6 s
REM Overall efficiency: 98.4615 %
REM
REM
REM
REM compiler GCC version 4.9.2
REM options -cpp -iprefix /lustre/shared/ucl/apps/gcc/4.9.2/bin/../lib/gcc/x86_64-unknown-linux-gnu/4.9.2/ -mtune=corei7 -march=x86-64 -g -Og
REM COMMAND_LINE
REM seed -1976191725 -1323954759 2059581177 310341743 1210197854 -1645747644 480152921 964316755 1129852384 1778113943 -463305712 1504112002
REM
REM S 3|1.8|5|6|7|30:31:32(qc=5)
REM O 2|1.5|12|13|15|20:21(qc=5)
REM Li 1|1.3|8|9|10|10U:20(qc=5)
REM Fe 3|2.2|2.0|1.0|8|9|10|40:41:32(qc=5)
REM 
CELL 1.54180    6.24362   11.40695    7.30778  141.30328   71.72956   90.00000
LATT -1
SFAC Li O  S  Fe 
Li     1  0.0619610000000 -0.0073990000000 -0.0226590000000 1.0   0.03
Li     1 -0.4380390000000 -0.0152610000000 -0.0226590000000 1.0   0.03
Li     1 -0.2574860000000  0.2886700000000 -0.3417050000000 1.0   0.01
Li     1  0.2425140000000  0.3696250000000 -0.3417050000000 1.0   0.01
Li     1  0.0026780000000  0.3671900000000 -0.7258460000000 1.0  -0.05
Li     1  0.5026780000000 -0.0930360000000 -0.7258460000000 1.0  -0.05
Li     1  0.2184150000000  0.6192080000000  0.2662950000000 1.0   0.01
Li     1 -0.2815850000000 -0.3529120000000  0.2662950000000 1.0   0.01
O      2  0.0412760000000 -0.3683790000000  0.1005230000000 1.0   0.22
O      2  0.5412760000000  0.4689020000000  0.1005230000000 1.0   0.22
S      3 -0.5982380000000  0.0376550000000 -0.2331120000000 1.0   0.13
S      3 -0.0982380000000 -0.2707670000000 -0.2331120000000 1.0   0.13
S      3 -0.3366440000000  0.2812520000000  0.3344980000000 1.0   0.12
S      3  0.1633560000000  0.0532460000000  0.3344980000000 1.0   0.12
Fe     4  0.0425300000000 -0.2151140000000  0.0829110000000 1.0   3.54
Fe     4 -0.4574700000000  0.2980250000000  0.0829110000000 1.0   3.54
END
