TITL LFSO-LiFe3S2O3-200909-174012-62f97c 0.0776 159.883035 -4.71134987E+003 9.54965 9.79142 9 (R32) n - 1
REM
REM Run started: Wed, 09 Sep 2020 18:23:49 +0100 in /lustre/scratch/uccabz1/launch_tmp/launcher_2020-09-09-16-40-10-791962
REM CASTEP 20.1 from code version af48c487+ pr-geom-scf-spinfix Tue Jun 2 15:39:59 2020 +0100
REM Functional Perdew Burke Ernzerhof Relativity Koelling-Harmon Dispersion off
REM Cut-off 340.0000 eV Grid scale 1.7500 Gmax 16.5316 1/A FBSC none
REM MP grid 3 3 3 Offset 0.000 0.000 0.000 No. kpts 6 Spacing 0.07
REM Total runtime: 2671.21 s
REM Overall efficiency: 92.5714 %
REM
REM
REM
REM compiler GCC version 4.9.2
REM options -cpp -iprefix /lustre/shared/ucl/apps/gcc/4.9.2/bin/../lib/gcc/x86_64-unknown-linux-gnu/4.9.2/ -mtune=corei7 -march=x86-64 -g -Og
REM COMMAND_LINE
REM seed -359887223 615841787 2028202861 1467106542 -1081254669 -2090041908 1667694823 -841023512 -1304095616 2042418391 -1412009149 778173968
REM
REM S 3|1.8|5|6|7|30:31:32(qc=5)
REM O 2|1.5|12|13|15|20:21(qc=5)
REM Li 1|1.3|8|9|10|10U:20(qc=5)
REM Fe 3|2.2|2.0|1.0|8|9|10|40:41:32(qc=5)
REM 
CELL 1.54180    5.45207    5.45207    5.45207   84.39785   84.39785   84.39785
LATT -1
SFAC Li O  S  Fe 
Li     1 -0.4801170000000 -0.4801170000000 -0.4801170000000 1.0  -0.07
O      2  0.5207430000000  0.2669810000000 -0.2208390000000 1.0   0.33
O      2 -0.2208390000000  0.5207430000000  0.2669810000000 1.0   0.33
O      2  0.2669810000000 -0.2208390000000  0.5207430000000 1.0   0.33
S      3 -0.2399290000000 -0.2399290000000 -0.2399290000000 1.0   0.04
S      3  0.2850310000000  0.2850310000000  0.2850310000000 1.0   0.05
Fe     4  0.4283940000000  0.0217280000000 -0.3830800000000 1.0   2.85
Fe     4 -0.3830800000000  0.4283940000000  0.0217280000000 1.0   2.85
Fe     4  0.0217280000000 -0.3830800000000  0.4283940000000 1.0   2.85
END
