TITL LFSO-Li3FeS2O-200911-185501-6732e8 -0.0083 308.961134 -7.52776895E+003 9.98090 10.1982 21 (P31m) n - 1
REM
REM Run started: Sat, 12 Sep 2020 07:33:33 +0100 in /lustre/scratch/uccabz1/launch_tmp/launcher_2020-09-11-17-54-58-711075
REM CASTEP 20.1 from code version af48c487+ pr-geom-scf-spinfix Tue Jun 2 15:39:59 2020 +0100
REM Functional Perdew Burke Ernzerhof Relativity Koelling-Harmon Dispersion off
REM Cut-off 340.0000 eV Grid scale 1.7500 Gmax 16.5316 1/A FBSC none
REM MP grid 3 3 2 Offset 0.000 0.000 0.000 No. kpts 5 Spacing 0.07
REM Total runtime: 45626.2 s
REM Overall efficiency: 85.875 %
REM
REM
REM
REM compiler GCC version 4.9.2
REM options -cpp -iprefix /lustre/shared/ucl/apps/gcc/4.9.2/bin/../lib/gcc/x86_64-unknown-linux-gnu/4.9.2/ -mtune=corei7 -march=x86-64 -g -Og
REM COMMAND_LINE
REM seed -2072228177 2113193643 212496957 1829019484 -730935336 2117307881 -433992506 1580471502 681157603 -1243513782 -568449325 -1818228367
REM
REM S 3|1.8|5|6|7|30:31:32(qc=5)
REM O 2|1.5|12|13|15|20:21(qc=5)
REM Li 1|1.3|8|9|10|10U:20(qc=5)
REM Fe 3|2.2|2.0|1.0|8|9|10|40:41:32(qc=5)
REM 
CELL 1.54180    6.12090    6.12090    9.52232   90.00000   90.00000  120.00000
LATT -1
SFAC Li O  S  Fe 
Li     1 -0.3220220000000 -0.3222060000000 -0.0995120000000 1.0   0.00
Li     1  0.3222060000000  0.0001840000000 -0.0995120000000 1.0   0.00
Li     1 -0.0001840000000  0.3220220000000 -0.0995120000000 1.0   0.00
Li     1  0.3365640000000  0.0001350000000 -0.3619700000000 1.0   0.01
Li     1 -0.0001350000000  0.3364290000000 -0.3619700000000 1.0   0.01
Li     1 -0.3364290000000 -0.3365640000000 -0.3619700000000 1.0   0.01
Li     1  0.0001080000000  0.6476580000000  0.0826830000000 1.0  -0.02
Li     1 -0.6476580000000  0.3524500000000  0.0826830000000 1.0  -0.02
Li     1 -0.3524500000000 -0.0001080000000  0.0826830000000 1.0  -0.02
O      2 -0.3196010000000 -0.3195910000000  0.1028920000000 1.0   0.36
O      2  0.3195910000000 -0.0000110000000  0.1028920000000 1.0   0.36
O      2  0.0000110000000  0.3196010000000  0.1028920000000 1.0   0.36
S      3  0.0003040000000 -0.3381850000000 -0.2231350000000 1.0   0.01
S      3  0.3381850000000  0.3384880000000 -0.2231350000000 1.0   0.01
S      3 -0.3384880000000 -0.0003040000000 -0.2231350000000 1.0   0.01
S      3 -0.3760160000000  0.0003890000000  0.3871410000000 1.0   0.09
S      3 -0.0003890000000 -0.3764050000000  0.3871410000000 1.0   0.09
S      3  0.3764050000000  0.3760160000000  0.3871410000000 1.0   0.09
Fe     4  0.2651740000000  0.0004400000000  0.2899740000000 1.0   2.88
Fe     4 -0.0004400000000  0.2647340000000  0.2899740000000 1.0   2.88
Fe     4 -0.2647340000000 -0.2651740000000  0.2899740000000 1.0   2.88
END
