TITL LFSO-Li2Fe2S2O-200913-115853-d75f44 -0.0634 199.115330 -6.34578272E+003 11.9631 12.2006 14 (P-1) n - 1
REM
REM Run started: Sun, 13 Sep 2020 23:20:46 +0100 in /lustre/scratch/uccabz1/launch_tmp/launcher_2020-09-13-10-58-50-616275
REM CASTEP 20.1 from code version af48c487+ pr-geom-scf-spinfix Tue Jun 2 15:39:59 2020 +0100
REM Functional Perdew Burke Ernzerhof Relativity Koelling-Harmon Dispersion off
REM Cut-off 340.0000 eV Grid scale 1.7500 Gmax 16.5316 1/A FBSC none
REM MP grid 4 3 2 Offset 0.000 0.000 0.000 No. kpts 12 Spacing 0.07
REM Total runtime: 43357.9 s
REM Overall efficiency: 97.9167 %
REM
REM
REM
REM compiler GCC version 4.9.2
REM options -cpp -iprefix /lustre/shared/ucl/apps/gcc/4.9.2/bin/../lib/gcc/x86_64-unknown-linux-gnu/4.9.2/ -mtune=corei7 -march=x86-64 -g -Og
REM COMMAND_LINE
REM seed 1268396827 -1643240188 -1928478049 -1748607462 75727305 1076964195 -2108720919 1339230653 -1387132707 -975416333 1120001510 -26026086
REM
REM S 3|1.8|5|6|7|30:31:32(qc=5)
REM O 2|1.5|12|13|15|20:21(qc=5)
REM Li 1|1.3|8|9|10|10U:20(qc=5)
REM Fe 3|2.2|2.0|1.0|8|9|10|40:41:32(qc=5)
REM 
CELL 1.54180    3.74465    6.15589    9.28302   68.88451   92.62324   88.03383
LATT -1
SFAC Li O  S  Fe 
Li     1  0.2770710000000  0.0828330000000  0.0855860000000 1.0  -0.01
Li     1 -0.2770710000000 -0.0828330000000 -0.0855860000000 1.0  -0.01
Li     1  0.2704900000000 -0.4573070000000 -0.1298470000000 1.0  -0.02
Li     1 -0.2704900000000  0.4573070000000  0.1298470000000 1.0  -0.02
O      2 -0.4053190000000  0.0344020000000 -0.2999930000000 1.0   0.21
O      2  0.4053190000000 -0.0344020000000  0.2999930000000 1.0   0.21
S      3 -0.1186540000000 -0.6478840000000  0.4064650000000 1.0   0.06
S      3  0.1186540000000  0.6478840000000 -0.4064650000000 1.0   0.06
S      3 -0.2347010000000  0.2959160000000 -0.0764770000000 1.0   0.04
S      3  0.2347010000000 -0.2959160000000  0.0764770000000 1.0   0.04
Fe     4 -0.1056060000000 -0.0341020000000  0.3766600000000 1.0   3.24
Fe     4  0.1056060000000  0.0341020000000 -0.3766600000000 1.0   3.24
Fe     4 -0.2881270000000  0.3531890000000 -0.3458630000000 1.0   2.46
Fe     4  0.2881270000000 -0.3531890000000  0.3458630000000 1.0   2.46
END
