TITL LFSO-Li3Fe3S5O-201001-222458-d34d43 0.2576 883.104357 -1.02909772E+004 0.264171 14.6660 24 (R3) n - 1
REM
REM Run started: Fri, 02 Oct 2020 09:54:07 +0100 in /lustre/scratch/uccabz1/launch_tmp/launcher_2020-10-02-08-37-00-916025
REM CASTEP 20.1 from code version af48c487+ pr-geom-scf-spinfix Tue Jun 2 15:39:59 2020 +0100
REM Functional Perdew Burke Ernzerhof Relativity Koelling-Harmon Dispersion off
REM Cut-off 340.0000 eV Grid scale 1.7500 Gmax 16.5316 1/A FBSC none
REM MP grid 2 2 2 Offset 0.000 0.000 0.000 No. kpts 2 Spacing 0.07
REM Total runtime: 27742.8 s
REM Overall efficiency: 77.5 %
REM
REM
REM
REM compiler GCC version 4.9.2
REM options -cpp -iprefix /lustre/shared/ucl/apps/gcc/4.9.2/bin/../lib/gcc/x86_64-unknown-linux-gnu/4.9.2/ -mtune=corei7 -march=x86-64 -g -Og
REM COMMAND_LINE
REM seed 233835234 -1754260946 -1581171608 -424334714 1124212807 -1515093685 1659769709 -1670483286 1287824839 -25158980 -245199256 61613215
REM
REM S 3|1.8|5|6|7|30:31:32(qc=5)
REM O 2|1.5|12|13|15|20:21(qc=5)
REM Li 1|1.3|8|9|10|10U:20(qc=5)
REM Fe 3|2.2|2.0|1.0|8|9|10|40:41:32(qc=5)
REM 
CELL 1.54180   10.88220   10.88220   10.88220   58.64890   58.64890   58.64890
LATT -1
SFAC Li O  S  Fe 
Li     1  0.2136500000000 -0.1766000000000  0.0707420000000 1.0  -0.00
Li     1  0.0707420000000  0.2136500000000 -0.1766000000000 1.0  -0.00
Li     1 -0.1766000000000  0.0707420000000  0.2136500000000 1.0  -0.00
Li     1  0.4669240000000  0.3841750000000 -0.3067710000000 1.0  -0.01
Li     1 -0.3067710000000  0.4669240000000  0.3841750000000 1.0  -0.01
Li     1  0.3841750000000 -0.3067710000000  0.4669240000000 1.0  -0.01
O      2 -0.2337820000000 -0.2337820000000 -0.2337820000000 1.0   0.02
O      2 -0.4733050000000 -0.4733050000000 -0.4733050000000 1.0   0.24
S      3 -0.0315880000000 -0.0052780000000 -0.3699740000000 1.0  -0.12
S      3 -0.3699740000000 -0.0315880000000 -0.0052780000000 1.0  -0.12
S      3 -0.0052780000000 -0.3699740000000 -0.0315880000000 1.0  -0.12
S      3 -0.1094680000000  0.2389500000000  0.2652000000000 1.0   0.06
S      3  0.2652000000000 -0.1094680000000  0.2389500000000 1.0   0.06
S      3  0.2389500000000  0.2652000000000 -0.1094680000000 1.0   0.06
S      3  0.1511170000000  0.6144570000000 -0.4091980000000 1.0  -0.02
S      3 -0.4091980000000  0.1511170000000  0.6144570000000 1.0  -0.02
S      3  0.6144570000000 -0.4091980000000  0.1511170000000 1.0  -0.02
S      3  0.0040050000000  0.0040050000000  0.0040050000000 1.0  -0.25
Fe     4 -0.0418400000000 -0.2298950000000 -0.2957230000000 1.0  -2.01
Fe     4 -0.2957230000000 -0.0418400000000 -0.2298950000000 1.0  -2.01
Fe     4 -0.2298950000000 -0.2957230000000 -0.0418400000000 1.0  -2.01
Fe     4  0.1168350000000 -0.5056400000000 -0.1717160000000 1.0   2.19
Fe     4 -0.1717160000000  0.1168350000000 -0.5056400000000 1.0   2.19
Fe     4 -0.5056400000000 -0.1717160000000  0.1168350000000 1.0   2.19
END
