TITL LFSO-Li5FeSO3-200910-071136-09d4c0 0.0092 451.688075 -6.95771655E+003 -9.72345 9.75885 20 (P3) n - 1
REM
REM Run started: Thu, 10 Sep 2020 17:41:00 +0100 in /lustre/scratch/uccabz1/launch_tmp/launcher_2020-09-10-06-11-34-855200
REM CASTEP 20.1 from code version af48c487+ pr-geom-scf-spinfix Tue Jun 2 15:39:59 2020 +0100
REM Functional Perdew Burke Ernzerhof Relativity Koelling-Harmon Dispersion off
REM Cut-off 340.0000 eV Grid scale 1.7500 Gmax 16.5316 1/A FBSC none
REM MP grid 3 3 1 Offset 0.000 0.000 0.000 No. kpts 3 Spacing 0.07
REM Total runtime: 40127.4 s
REM Overall efficiency: 80.8182 %
REM
REM
REM
REM compiler GCC version 4.9.2
REM options -cpp -iprefix /lustre/shared/ucl/apps/gcc/4.9.2/bin/../lib/gcc/x86_64-unknown-linux-gnu/4.9.2/ -mtune=corei7 -march=x86-64 -g -Og
REM COMMAND_LINE
REM seed -280838302 1764429080 -370027356 800803420 -1456310521 -1850965634 -232544330 20740165 327738335 1214388936 946417525 920807423
REM
REM S 3|1.8|5|6|7|30:31:32(qc=5)
REM O 2|1.5|12|13|15|20:21(qc=5)
REM Li 1|1.3|8|9|10|10U:20(qc=5)
REM Fe 3|2.2|2.0|1.0|8|9|10|40:41:32(qc=5)
REM 
CELL 1.54180    5.88882    5.88882   15.04012   90.00000   90.00000  120.00000
LATT -1
SFAC Li O  S  Fe 
Li     1  0.2795350000000  0.3189300000000 -0.3486170000000 1.0   0.00
Li     1  0.0393950000000 -0.2795350000000 -0.3486170000000 1.0   0.00
Li     1 -0.3189300000000 -0.0393950000000 -0.3486170000000 1.0   0.00
Li     1  0.0301080000000 -0.3135790000000  0.0788110000000 1.0  -0.00
Li     1 -0.3436880000000 -0.0301080000000  0.0788110000000 1.0  -0.00
Li     1  0.3135790000000  0.3436880000000  0.0788110000000 1.0  -0.00
Li     1  0.3417300000000 -0.0341270000000  0.5051210000000 1.0  -0.02
Li     1 -0.3758570000000 -0.3417300000000  0.5051210000000 1.0  -0.02
Li     1  0.0341270000000  0.3758570000000  0.5051210000000 1.0  -0.02
Li     1 -0.3333330000000  0.3333330000000 -0.3703940000000 1.0   0.00
O      2  0.0163110000000 -0.3953220000000  0.1930580000000 1.0  -0.45
O      2 -0.4116330000000 -0.0163110000000  0.1930580000000 1.0  -0.45
O      2  0.3953220000000  0.4116330000000  0.1930580000000 1.0  -0.45
O      2 -0.0278290000000  0.3279140000000 -0.3795010000000 1.0  -0.03
O      2  0.3557430000000  0.0278290000000 -0.3795010000000 1.0  -0.03
O      2 -0.3279140000000 -0.3557430000000 -0.3795010000000 1.0  -0.03
S      3  0.3333330000000 -0.3333330000000  0.3994270000000 1.0  -0.23
S      3 -0.3333330000000  0.3333330000000  0.0150110000000 1.0  -0.26
Fe     4  0.3333330000000 -0.3333330000000  0.2488390000000 1.0  -3.90
Fe     4 -0.3333330000000  0.3333330000000  0.1833430000000 1.0  -3.83
END
