TITL LFSO-Li4Fe3S3O2-200927-113413-6b0c44 -0.0043 266.721079 -5.17943661E+003 -4.05347 8.67386 12 (Pm) n - 1
REM
REM Run started: Sun, 27 Sep 2020 18:05:39 +0100 in /lustre/scratch/uccabz1/launch_tmp/launcher_2020-09-27-10-34-12-054289
REM CASTEP 20.1 from code version af48c487+ pr-geom-scf-spinfix Tue Jun 2 15:39:59 2020 +0100
REM Functional Perdew Burke Ernzerhof Relativity Koelling-Harmon Dispersion off
REM Cut-off 340.0000 eV Grid scale 1.7500 Gmax 16.5316 1/A FBSC none
REM MP grid 4 3 2 Offset 0.000 0.000 0.000 No. kpts 6 Spacing 0.07
REM Total runtime: 26126.5 s
REM Overall efficiency: 89.1111 %
REM
REM
REM
REM compiler GCC version 4.9.2
REM options -cpp -iprefix /lustre/shared/ucl/apps/gcc/4.9.2/bin/../lib/gcc/x86_64-unknown-linux-gnu/4.9.2/ -mtune=corei7 -march=x86-64 -g -Og
REM COMMAND_LINE
REM seed -905904543 -1803090480 766229068 1495608736 1854612745 848650084 -1832493597 -1159009524 -1468675955 -26331738 2144165185 1601182263
REM
REM S 3|1.8|5|6|7|30:31:32(qc=5)
REM O 2|1.5|12|13|15|20:21(qc=5)
REM Li 1|1.3|8|9|10|10U:20(qc=5)
REM Fe 3|2.2|2.0|1.0|8|9|10|40:41:32(qc=5)
REM 
CELL 1.54180    3.55494    5.81890   12.89440   90.00000   90.00000   89.49833
LATT -1
SFAC Li O  S  Fe 
Li     1 -0.3203200000000  0.2265210000000 -0.1870100000000 1.0   0.01
Li     1 -0.3203200000000  0.2265210000000  0.1870100000000 1.0   0.01
Li     1  0.2205020000000 -0.4924920000000  0.3125220000000 1.0   0.01
Li     1  0.2205020000000 -0.4924920000000 -0.3125220000000 1.0   0.01
O      2  0.1834910000000  0.2373880000000 -0.2320970000000 1.0  -0.20
O      2  0.1834910000000  0.2373880000000  0.2320970000000 1.0  -0.20
S      3 -0.2908830000000 -0.2235450000000 -0.3447170000000 1.0  -0.06
S      3 -0.2908830000000 -0.2235450000000  0.3447170000000 1.0  -0.06
S      3  0.2066290000000  0.1954420000000  0.5000000000000 1.0  -0.01
Fe     4  0.2079040000000  0.0215830000000  0.3431020000000 1.0  -2.96
Fe     4  0.2079040000000  0.0215830000000 -0.3431020000000 1.0  -2.96
Fe     4 -0.2879220000000 -0.0432080000000 -0.5000000000000 1.0   2.37
END
