TITL LFSO-LiFe3SO4-200908-235853-7ef636 -0.0741 132.862466 -4.84348420E+003 6.83243 7.00064 9 (P2) n - 1
REM
REM Run started: Wed, 09 Sep 2020 04:31:59 +0100 in /lustre/scratch/uccabz1/launch_tmp/launcher_2020-09-08-22-58-51-377286
REM CASTEP 20.1 from code version af48c487+ pr-geom-scf-spinfix Tue Jun 2 15:39:59 2020 +0100
REM Functional Perdew Burke Ernzerhof Relativity Koelling-Harmon Dispersion off
REM Cut-off 340.0000 eV Grid scale 1.7500 Gmax 16.5316 1/A FBSC none
REM MP grid 6 2 3 Offset 0.000 0.000 0.000 No. kpts 12 Spacing 0.07
REM Total runtime: 16780.3 s
REM Overall efficiency: 96.0909 %
REM
REM
REM
REM compiler GCC version 4.9.2
REM options -cpp -iprefix /lustre/shared/ucl/apps/gcc/4.9.2/bin/../lib/gcc/x86_64-unknown-linux-gnu/4.9.2/ -mtune=corei7 -march=x86-64 -g -Og
REM COMMAND_LINE
REM seed -1304370406 1219698017 1363683728 613861844 1368598327 -1407079618 -153597015 -2076071769 203333832 -1317619504 1956170043 -475067268
REM
REM S 3|1.8|5|6|7|30:31:32(qc=5)
REM O 2|1.5|12|13|15|20:21(qc=5)
REM Li 1|1.3|8|9|10|10U:20(qc=5)
REM Fe 3|2.2|2.0|1.0|8|9|10|40:41:32(qc=5)
REM 
CELL 1.54180    2.78932    8.65457    5.91708   90.00000   90.00000  111.54275
LATT -1
SFAC Li O  S  Fe 
Li     1 -0.0000000000000  0.5000000000000 -0.1822050000000 1.0  -0.03
O      2  0.3550380000000  0.3177170000000 -0.2922440000000 1.0   0.17
O      2 -0.3550380000000 -0.3177170000000 -0.2922440000000 1.0   0.17
O      2  0.1699830000000 -0.2941660000000  0.2680570000000 1.0   0.21
O      2 -0.1699830000000  0.2941660000000  0.2680570000000 1.0   0.21
S      3 -0.0000000000000 -0.0000000000000  0.4241110000000 1.0   0.02
Fe     4  0.2643330000000 -0.2115830000000 -0.4435760000000 1.0   1.88
Fe     4 -0.2643330000000  0.2115830000000 -0.4435760000000 1.0   1.88
Fe     4 -0.0000000000000 -0.5000000000000  0.3404840000000 1.0   2.31
END
