TITL LFSO-Li2Fe4SO4-200912-003439-8ff8f6 -0.2764 293.864748 -1.18190653E+004 -24.7534 25.2429 22 (Cc) n - 1
REM
REM Run started: Sun, 13 Sep 2020 16:21:39 +0100 in /lustre/scratch/uccabz1/launch_tmp/launcher_2020-09-13-14-04-10-725325
REM CASTEP 20.1 from code version af48c487+ pr-geom-scf-spinfix Tue Jun 2 15:39:59 2020 +0100
REM Functional Perdew Burke Ernzerhof Relativity Koelling-Harmon Dispersion off
REM Cut-off 340.0000 eV Grid scale 1.7500 Gmax 16.5316 1/A FBSC none
REM MP grid 4 4 3 Offset 0.000 0.000 0.000 No. kpts 16 Spacing 0.07
REM Total runtime: 140703 s
REM Overall efficiency: 82.6429 %
REM
REM
REM
REM compiler GCC version 4.9.2
REM options -cpp -iprefix /lustre/shared/ucl/apps/gcc/4.9.2/bin/../lib/gcc/x86_64-unknown-linux-gnu/4.9.2/ -mtune=corei7 -march=x86-64 -g -Og
REM COMMAND_LINE
REM seed 1067913224 -1224483542 -2077679087 1284796724 -542404115 367637223 -174626202 -268416349 -1705451230 1753367553 -1197622624 -567225979
REM
REM S 3|1.8|5|6|7|30:31:32(qc=5)
REM O 2|1.5|12|13|15|20:21(qc=5)
REM Li 1|1.3|8|9|10|10U:20(qc=5)
REM Fe 3|2.2|2.0|1.0|8|9|10|40:41:32(qc=5)
REM 
CELL 1.54180    8.59284    8.59284    7.73851  109.64954  109.64954  127.55418
LATT -1
SFAC Li O  S  Fe 
Li     1  0.5197280000000  0.5506430000000 -0.2720880000000 1.0   0.00
Li     1  0.0506430000000  0.0197280000000  0.2279120000000 1.0   0.00
Li     1 -0.6226940000000 -0.2136520000000 -0.6532080000000 1.0   0.11
Li     1 -0.7136520000000 -0.1226940000000 -0.1532080000000 1.0   0.11
O      2  0.4057430000000  0.4996760000000 -0.0844030000000 1.0  -0.26
O      2 -0.0003240000000 -0.0942570000000 -0.5844030000000 1.0  -0.26
O      2  0.2981580000000 -0.1679940000000  0.5791450000000 1.0  -0.16
O      2  0.3320060000000 -0.2018420000000  0.0791450000000 1.0  -0.16
O      2 -0.2184140000000 -0.0637730000000 -0.0101430000000 1.0  -0.18
O      2  0.4362270000000  0.2815860000000  0.4898570000000 1.0  -0.18
O      2 -0.2403600000000  0.0359860000000 -0.3540450000000 1.0  -0.27
O      2 -0.4640140000000  0.2596400000000  0.1459550000000 1.0  -0.27
S      3 -0.1675380000000 -0.5346580000000 -0.0143460000000 1.0  -0.12
S      3 -0.0346580000000  0.3324620000000 -0.5143460000000 1.0  -0.12
Fe     4 -0.0581990000000  0.3946590000000 -0.2223940000000 1.0  -2.30
Fe     4 -0.1053410000000  0.4418010000000  0.2776060000000 1.0  -2.30
Fe     4  0.3702570000000  0.0966690000000 -0.4053640000000 1.0  -2.48
Fe     4 -0.4033310000000 -0.1297430000000  0.0946360000000 1.0  -2.48
Fe     4  0.5630790000000  0.2048020000000  0.3762520000000 1.0  -3.28
Fe     4 -0.2951980000000  0.0630790000000 -0.1237480000000 1.0  -3.28
Fe     4 -0.3930950000000  0.4849560000000  0.0881310000000 1.0  -3.42
Fe     4 -0.0150440000000  0.1069050000000  0.5881310000000 1.0  -3.42
END
