TITL LFSO-Li4Fe3S2O3-201001-210535-bcaee1 0.0030 381.679572 -1.06244518E+004 -23.8349 24.2032 24 (P1) n - 1
REM
REM Run started: Fri, 02 Oct 2020 09:01:13 +0100 in /scratch/scratch/mmm0366/launch_tmp/launcher_2020-10-01-20-05-34-257840
REM CASTEP 19.11| from code version Version unavailable
REM Functional Perdew Burke Ernzerhof Relativity Koelling-Harmon Dispersion off
REM Cut-off 340.0000 eV Grid scale 1.7500 Gmax 16.5316 1/A FBSC none
REM MP grid 3 3 3 Offset 0.000 0.000 0.000 No. kpts 10 Spacing 0.07
REM Total runtime: 47145.2 s
REM Overall efficiency: 71.5 %
REM
REM
REM
REM compiler GCC version 4.9.2
REM options -cpp -iprefix /scratch/UCL/applications/gcc/4.9.2/bin/../lib/gcc/x86_64-unknown-linux-gnu/4.9.2/ -mtune=corei7 -march=x86-64 -g -O2
REM COMMAND_LINE
REM seed 1828021298 -2014892864 809945251 -906959353 1219270237 269181632 1835506057 2071446828 -662696283 -342545770 -1854616687 -1156652817
REM
REM S 3|1.8|5|6|7|30:31:32(qc=5)
REM O 2|1.5|12|13|15|20:21(qc=5)
REM Li 1|1.3|8|9|10|10U:20(qc=5)
REM Fe 3|2.2|2.0|1.0|8|9|10|40:41:32(qc=5)
REM 
CELL 1.54180    6.76903    9.28847    9.28847  116.11025  111.27435  111.27435
LATT -1
SFAC Li O  S  Fe 
Li     1 -0.3655990000000 -0.2065140000000  0.2732470000000 1.0  -0.02
Li     1  0.1344010000000  0.2732470000000 -0.2065140000000 1.0  -0.02
Li     1  0.0653650000000 -0.5528730000000 -0.4069880000000 1.0   0.06
Li     1 -0.4346350000000 -0.4069880000000 -0.5528730000000 1.0   0.06
Li     1  0.3255860000000  0.1374900000000 -0.3190320000000 1.0   0.09
Li     1 -0.1744140000000 -0.3190320000000  0.1374900000000 1.0   0.09
Li     1  0.0440730000000  0.1216550000000  0.3277120000000 1.0   0.01
Li     1 -0.4559270000000  0.3277120000000  0.1216550000000 1.0   0.01
O      2 -0.2586840000000 -0.1525810000000  0.1297470000000 1.0  -0.27
O      2  0.2413160000000  0.1297470000000 -0.1525810000000 1.0  -0.27
O      2 -0.2498390000000 -0.2647430000000 -0.2529020000000 1.0  -0.32
O      2  0.2501610000000 -0.2529020000000 -0.2647430000000 1.0  -0.32
O      2  0.2273730000000  0.3038170000000 -0.3706800000000 1.0  -0.26
O      2 -0.2726270000000 -0.3706800000000  0.3038170000000 1.0  -0.26
S      3 -0.5309840000000  0.2577540000000  0.3495440000000 1.0  -0.34
S      3 -0.0309840000000  0.3495440000000  0.2577540000000 1.0  -0.34
S      3  0.4126350000000 -0.1242080000000  0.4657540000000 1.0  -0.25
S      3 -0.0873650000000  0.4657540000000 -0.1242080000000 1.0  -0.25
Fe     4 -0.4521120000000  0.4613760000000 -0.3249810000000 1.0  -3.57
Fe     4  0.0478880000000 -0.3249810000000  0.4613760000000 1.0  -3.57
Fe     4  0.1034580000000 -0.4653060000000  0.1785350000000 1.0  -3.33
Fe     4 -0.3965420000000  0.1785350000000 -0.4653060000000 1.0  -3.33
Fe     4 -0.3950580000000 -0.1876480000000 -0.1041580000000 1.0  -3.73
Fe     4  0.1049420000000 -0.1041580000000 -0.1876480000000 1.0  -3.73
END
