TITL LFSO-Li4Fe3SO4-200930-202859-86b628 0.0312 146.722557 -5.44477350E+003 -8.00998 8.48606 12 (C2/m) n - 1
REM
REM Run started: Wed, 30 Sep 2020 23:08:58 +0100 in /lustre/scratch/uccabz1/launch_tmp/launcher_2020-09-30-19-28-57-708225
REM CASTEP 20.1 from code version af48c487+ pr-geom-scf-spinfix Tue Jun 2 15:39:59 2020 +0100
REM Functional Perdew Burke Ernzerhof Relativity Koelling-Harmon Dispersion off
REM Cut-off 340.0000 eV Grid scale 1.7500 Gmax 16.5316 1/A FBSC none
REM MP grid 4 4 3 Offset 0.000 0.000 0.000 No. kpts 16 Spacing 0.07
REM Total runtime: 10096.8 s
REM Overall efficiency: 94.5556 %
REM
REM
REM
REM compiler GCC version 4.9.2
REM options -cpp -iprefix /lustre/shared/ucl/apps/gcc/4.9.2/bin/../lib/gcc/x86_64-unknown-linux-gnu/4.9.2/ -mtune=corei7 -march=x86-64 -g -Og
REM COMMAND_LINE
REM seed 892535064 2044647587 -574018698 -1285635844 697374673 1062376208 -1534996717 -1652721653 1329807226 61926197 -480245173 2035048576
REM
REM S 3|1.8|5|6|7|30:31:32(qc=5)
REM O 2|1.5|12|13|15|20:21(qc=5)
REM Li 1|1.3|8|9|10|10U:20(qc=5)
REM Fe 3|2.2|2.0|1.0|8|9|10|40:41:32(qc=5)
REM 
CELL 1.54180    4.87530    4.87530    7.60064  115.68310  115.68310   79.00021
LATT -1
SFAC Li O  S  Fe 
Li     1 -0.4155030000000  0.0687540000000 -0.2912550000000 1.0   0.08
Li     1 -0.0687540000000  0.4155030000000  0.2912550000000 1.0   0.08
Li     1  0.4155030000000 -0.0687540000000  0.2912550000000 1.0   0.08
Li     1  0.0687540000000 -0.4155030000000 -0.2912550000000 1.0   0.08
O      2  0.2839730000000 -0.1435760000000 -0.2971870000000 1.0  -0.15
O      2  0.1435760000000 -0.2839730000000  0.2971870000000 1.0  -0.15
O      2 -0.2839730000000  0.1435760000000  0.2971870000000 1.0  -0.15
O      2 -0.1435760000000  0.2839730000000 -0.2971870000000 1.0  -0.15
S      3  0.5000000000000 -0.5000000000000  0.0000000000000 1.0  -0.03
Fe     4 -0.5000000000000  0.0000000000000  0.0000000000000 1.0  -2.74
Fe     4  0.0000000000000  0.5000000000000  0.0000000000000 1.0  -2.74
Fe     4  0.0000000000000  0.0000000000000  0.5000000000000 1.0  -2.22
END
