TITL LFSO-Li6FeS2O2-200920-193523-63dc4a -0.0132 155.567745 -3.54642510E+003 4.00000 4.05450 11 (P2) n - 1
REM
REM Run started: Sun, 20 Sep 2020 21:24:31 +0100 in /lustre/scratch/uccabz1/launch_tmp/launcher_2020-09-20-18-35-22-384941
REM CASTEP 20.1 from code version af48c487+ pr-geom-scf-spinfix Tue Jun 2 15:39:59 2020 +0100
REM Functional Perdew Burke Ernzerhof Relativity Koelling-Harmon Dispersion off
REM Cut-off 340.0000 eV Grid scale 1.7500 Gmax 16.5316 1/A FBSC none
REM MP grid 5 3 3 Offset 0.000 0.000 0.000 No. kpts 16 Spacing 0.07
REM Total runtime: 6899.46 s
REM Overall efficiency: 89.9091 %
REM
REM
REM
REM compiler GCC version 4.9.2
REM options -cpp -iprefix /lustre/shared/ucl/apps/gcc/4.9.2/bin/../lib/gcc/x86_64-unknown-linux-gnu/4.9.2/ -mtune=corei7 -march=x86-64 -g -Og
REM COMMAND_LINE
REM seed 1002163294 -1310909811 -1334810401 4497669 347244397 1192757979 1779027335 -271152849 -915996956 -99771502 1745462558 321058789
REM
REM S 3|1.8|5|6|7|30:31:32(qc=5)
REM O 2|1.5|12|13|15|20:21(qc=5)
REM Li 1|1.3|8|9|10|10U:20(qc=5)
REM Fe 3|2.2|2.0|1.0|8|9|10|40:41:32(qc=5)
REM 
CELL 1.54180    3.98318    7.91919    5.64664   90.00000   90.00000  119.14251
LATT -1
SFAC Li O  S  Fe 
Li     1  0.3992650000000  0.1701680000000 -0.0167690000000 1.0  -0.01
Li     1 -0.3992650000000 -0.1701680000000 -0.0167690000000 1.0  -0.01
Li     1 -0.4645270000000 -0.2052340000000 -0.5471430000000 1.0   0.03
Li     1  0.4645270000000  0.2052340000000 -0.5471430000000 1.0   0.03
Li     1 -0.1591320000000 -0.3917590000000 -0.3841170000000 1.0  -0.02
Li     1  0.1591320000000  0.3917590000000 -0.3841170000000 1.0  -0.02
O      2 -0.3751380000000  0.3423790000000 -0.2691820000000 1.0   0.13
O      2  0.3751380000000 -0.3423790000000 -0.2691820000000 1.0   0.13
S      3 -0.0212030000000  0.2379200000000  0.2164770000000 1.0   0.09
S      3  0.0212030000000 -0.2379200000000  0.2164770000000 1.0   0.09
Fe     4  0.0000000000000  0.5000000000000 -0.0103260000000 1.0   3.58
END
