TITL LFSO-Li3Fe3S4O2-200929-131410-54d1f7 0.0390 188.831720 -5.28062862E+003 12.9442 12.9833 12 (P31m) n - 1
REM
REM Run started: Tue, 29 Sep 2020 15:17:11 +0100 in /lustre/scratch/uccabz1/launch_tmp/launcher_2020-09-29-12-14-08-853890
REM CASTEP 20.1 from code version af48c487+ pr-geom-scf-spinfix Tue Jun 2 15:39:59 2020 +0100
REM Functional Perdew Burke Ernzerhof Relativity Koelling-Harmon Dispersion off
REM Cut-off 340.0000 eV Grid scale 1.7500 Gmax 16.5316 1/A FBSC none
REM MP grid 3 3 3 Offset 0.000 0.000 0.000 No. kpts 8 Spacing 0.07
REM Total runtime: 7433.14 s
REM Overall efficiency: 94.625 %
REM
REM
REM
REM compiler GCC version 4.9.2
REM options -cpp -iprefix /lustre/shared/ucl/apps/gcc/4.9.2/bin/../lib/gcc/x86_64-unknown-linux-gnu/4.9.2/ -mtune=corei7 -march=x86-64 -g -Og
REM COMMAND_LINE
REM seed -120826077 594958383 -529133341 756437397 1901171503 -594622266 -598558817 168143833 -967833195 -518467727 1254026475 -434972274
REM
REM S 3|1.8|5|6|7|30:31:32(qc=5)
REM O 2|1.5|12|13|15|20:21(qc=5)
REM Li 1|1.3|8|9|10|10U:20(qc=5)
REM Fe 3|2.2|2.0|1.0|8|9|10|40:41:32(qc=5)
REM 
CELL 1.54180    5.94536    5.94536    6.16862   90.00000   90.00000  120.00000
LATT -1
SFAC Li O  S  Fe 
Li     1  0.0005960000000 -0.3140290000000 -0.0786080000000 1.0   0.08
Li     1  0.3140290000000  0.3146240000000 -0.0786080000000 1.0   0.08
Li     1 -0.3146240000000 -0.0005960000000 -0.0786080000000 1.0   0.08
O      2 -0.3333330000000  0.3333330000000  0.2294210000000 1.0   0.40
O      2  0.3333330000000 -0.3333330000000  0.2285360000000 1.0   0.39
S      3  0.3536260000000  0.0001720000000 -0.3090470000000 1.0   0.25
S      3 -0.0001720000000  0.3534550000000 -0.3090470000000 1.0   0.25
S      3 -0.3534550000000 -0.3536260000000 -0.3090470000000 1.0   0.25
S      3  0.0000000000000 -0.0000000000000  0.2028170000000 1.0   0.32
Fe     4 -0.3756210000000 -0.3754970000000  0.3421580000000 1.0   3.62
Fe     4  0.3754970000000 -0.0001240000000  0.3421580000000 1.0   3.62
Fe     4  0.0001240000000  0.3756210000000  0.3421580000000 1.0   3.62
END
