TITL LFSO-Li6FeS2O2-200920-220030-b88a63 -0.3478 632.633791 -7.09101886E+003 8.00042 8.39262 22 (Pnc2) n - 1
REM
REM Run started: Mon, 21 Sep 2020 00:35:44 +0100 in /lustre/scratch/uccabz1/launch_tmp/launcher_2020-09-20-21-00-29-107337
REM CASTEP 20.1 from code version af48c487+ pr-geom-scf-spinfix Tue Jun 2 15:39:59 2020 +0100
REM Functional Perdew Burke Ernzerhof Relativity Koelling-Harmon Dispersion off
REM Cut-off 340.0000 eV Grid scale 1.7500 Gmax 16.5316 1/A FBSC none
REM MP grid 2 2 2 Offset 0.000 0.000 0.000 No. kpts 1 Spacing 0.07
REM Total runtime: 10507.6 s
REM Overall efficiency: 79.0833 %
REM
REM
REM
REM compiler GCC version 4.9.2
REM options -cpp -iprefix /lustre/shared/ucl/apps/gcc/4.9.2/bin/../lib/gcc/x86_64-unknown-linux-gnu/4.9.2/ -mtune=corei7 -march=x86-64 -g -Og
REM COMMAND_LINE
REM seed 448379069 -1827544498 -1164889705 -1817188738 2120412132 -1675521416 1244396161 -1725678425 -735338306 -1432512204 -1735912799 -731643411
REM
REM S 3|1.8|5|6|7|30:31:32(qc=5)
REM O 2|1.5|12|13|15|20:21(qc=5)
REM Li 1|1.3|8|9|10|10U:20(qc=5)
REM Fe 3|2.2|2.0|1.0|8|9|10|40:41:32(qc=5)
REM 
CELL 1.54180   11.43843    6.92719    7.98415   90.00000   90.00000   90.00000
LATT -1
SFAC Li O  S  Fe 
Li     1  0.1316980000000  0.0869850000000  0.0465280000000 1.0   0.03
Li     1 -0.1316980000000 -0.0869850000000  0.0465280000000 1.0   0.03
Li     1  0.1316980000000 -0.5869850000000 -0.4534720000000 1.0   0.03
Li     1 -0.1316980000000  0.5869850000000 -0.4534720000000 1.0   0.03
Li     1  0.2422390000000  0.5103930000000 -0.1599480000000 1.0   0.00
Li     1 -0.2422390000000 -0.5103930000000 -0.1599480000000 1.0   0.00
Li     1  0.2422390000000 -0.0103930000000 -0.6599480000000 1.0   0.00
Li     1 -0.2422390000000  0.0103930000000 -0.6599480000000 1.0   0.00
Li     1  0.0196180000000 -0.2078250000000 -0.2869500000000 1.0  -0.06
Li     1 -0.0196180000000  0.2078250000000 -0.2869500000000 1.0  -0.06
Li     1  0.0196180000000 -0.2921750000000  0.2130500000000 1.0  -0.06
Li     1 -0.0196180000000  0.2921750000000  0.2130500000000 1.0  -0.06
O      2 -0.1206990000000 -0.3407890000000 -0.2215750000000 1.0   0.18
O      2  0.1206990000000  0.3407890000000 -0.2215750000000 1.0   0.18
O      2 -0.1206990000000 -0.1592110000000  0.2784250000000 1.0   0.18
O      2  0.1206990000000  0.1592110000000  0.2784250000000 1.0   0.18
S      3  0.1344780000000 -0.2433160000000 -0.0299520000000 1.0   0.10
S      3 -0.1344780000000  0.2433160000000 -0.0299520000000 1.0   0.10
S      3  0.1344780000000 -0.2566840000000  0.4700480000000 1.0   0.10
S      3 -0.1344780000000  0.2566840000000  0.4700480000000 1.0   0.10
Fe     4  0.0000000000000  0.5000000000000 -0.1105240000000 1.0   3.50
Fe     4  0.0000000000000  0.0000000000000  0.3894760000000 1.0   3.50
END
