TITL LFSO-Li3FeSO2-200911-150319-700106 -0.0614 127.204496 -2.64012666E+003 4.85043 4.90503 7 (R3) n - 1
REM
REM Run started: Fri, 11 Sep 2020 15:47:19 +0100 in /lustre/scratch/uccabz1/launch_tmp/launcher_2020-09-11-14-03-17-724830
REM CASTEP 20.1 from code version af48c487+ pr-geom-scf-spinfix Tue Jun 2 15:39:59 2020 +0100
REM Functional Perdew Burke Ernzerhof Relativity Koelling-Harmon Dispersion off
REM Cut-off 340.0000 eV Grid scale 1.7500 Gmax 16.5316 1/A FBSC none
REM MP grid 3 3 4 Offset 0.000 0.000 0.000 No. kpts 14 Spacing 0.07
REM Total runtime: 3618.74 s
REM Overall efficiency: 94.5 %
REM
REM
REM
REM compiler GCC version 4.9.2
REM options -cpp -iprefix /lustre/shared/ucl/apps/gcc/4.9.2/bin/../lib/gcc/x86_64-unknown-linux-gnu/4.9.2/ -mtune=corei7 -march=x86-64 -g -Og
REM COMMAND_LINE
REM seed 2115871768 1911193020 140085779 -1538421262 205681660 -1297668380 -397785672 -1982915769 -93312773 179630050 -1311748210 -1087901608
REM
REM S 3|1.8|5|6|7|30:31:32(qc=5)
REM O 2|1.5|12|13|15|20:21(qc=5)
REM Li 1|1.3|8|9|10|10U:20(qc=5)
REM Fe 3|2.2|2.0|1.0|8|9|10|40:41:32(qc=5)
REM 
CELL 1.54180    6.08489    6.08489    5.29899   54.95950   54.95950   60.00000
LATT -1
SFAC Li O  S  Fe 
Li     1  0.3239570000000 -0.1162900000000  0.0537470000000 1.0  -0.04
Li     1 -0.1162900000000 -0.2614140000000  0.0537470000000 1.0  -0.04
Li     1 -0.2614140000000  0.3239570000000  0.0537470000000 1.0  -0.04
O      2 -0.3339360000000 -0.3339360000000  0.0018080000000 1.0   0.54
O      2  0.0190740000000  0.0190740000000 -0.0572220000000 1.0   0.30
S      3  0.3443870000000  0.3443870000000 -0.0331600000000 1.0   0.34
Fe     4  0.1667900000000  0.1667900000000  0.4996310000000 1.0   3.79
END
