TITL LFSO-Li3Fe3S2O4-200929-170704-6b83ef -0.0121 327.713315 -1.10975042E+004 0.128435E-01 0.198753E-01 24 (R3) n - 1
REM
REM Run started: Wed, 30 Sep 2020 11:52:40 +0100 in /lustre/scratch/uccabz1/launch_tmp/launcher_2020-09-30-10-27-43-017162
REM CASTEP 20.1 from code version af48c487+ pr-geom-scf-spinfix Tue Jun 2 15:39:59 2020 +0100
REM Functional Perdew Burke Ernzerhof Relativity Koelling-Harmon Dispersion off
REM Cut-off 340.0000 eV Grid scale 1.7500 Gmax 16.5316 1/A FBSC none
REM MP grid 3 3 3 Offset 0.000 0.000 0.000 No. kpts 6 Spacing 0.07
REM Total runtime: 51382.5 s
REM Overall efficiency: 98 %
REM
REM
REM
REM compiler GCC version 4.9.2
REM options -cpp -iprefix /scratch/UCL/applications/gcc/4.9.2/bin/../lib/gcc/x86_64-unknown-linux-gnu/4.9.2/ -mtune=corei7 -march=x86-64 -g -O2
REM COMMAND_LINE
REM seed -291864473 -1023183512 -1903763701 -1550374829 -605250805 1956482073 255170418 767308148 -678962362 1937752134 646136241 1295324458
REM
REM S 3|1.8|5|6|7|30:31:32(qc=5)
REM O 2|1.5|12|13|15|20:21(qc=5)
REM Li 1|1.3|8|9|10|10U:20(qc=5)
REM Fe 3|2.2|2.0|1.0|8|9|10|40:41:32(qc=5)
REM 
CELL 1.54180    6.91220    6.91220    6.91220   94.00677   94.00677   94.00677
LATT -1
SFAC Li O  S  Fe 
Li     1  0.5773950000000  0.3216810000000  0.1609550000000 1.0
Li     1  0.1609550000000  0.5773950000000  0.3216810000000 1.0
Li     1  0.3216810000000  0.1609550000000  0.5773950000000 1.0
Li     1  0.1368040000000 -0.2886630000000 -0.1212110000000 1.0
Li     1 -0.1212110000000  0.1368040000000 -0.2886630000000 1.0
Li     1 -0.2886630000000 -0.1212110000000  0.1368040000000 1.0
O      2 -0.0459770000000 -0.2309480000000  0.3268710000000 1.0
O      2  0.3268710000000 -0.0459770000000 -0.2309480000000 1.0
O      2 -0.2309480000000  0.3268710000000 -0.0459770000000 1.0
O      2 -0.0877200000000 -0.4030220000000 -0.2639390000000 1.0
O      2 -0.2639390000000 -0.0877200000000 -0.4030220000000 1.0
O      2 -0.4030220000000 -0.2639390000000 -0.0877200000000 1.0
O      2  0.1978450000000  0.1978450000000  0.1978450000000 1.0
O      2 -0.0198280000000 -0.0198280000000 -0.0198280000000 1.0
S      3  0.3385740000000  0.3936460000000 -0.1208830000000 1.0
S      3 -0.1208830000000  0.3385740000000  0.3936460000000 1.0
S      3  0.3936460000000 -0.1208830000000  0.3385740000000 1.0
S      3  0.5196100000000  0.5196100000000  0.5196100000000 1.0
Fe     4 -0.4867980000000 -0.1917830000000 -0.3233560000000 1.0
Fe     4 -0.3233560000000 -0.4867980000000 -0.1917830000000 1.0
Fe     4 -0.1917830000000 -0.3233560000000 -0.4867980000000 1.0
Fe     4  0.1093550000000 -0.0587310000000  0.2214270000000 1.0
Fe     4  0.2214270000000  0.1093550000000 -0.0587310000000 1.0
Fe     4 -0.0587310000000  0.2214270000000  0.1093550000000 1.0
END
