TITL LFSO-Li3Fe3S2O4-200928-173244-749bfa 0.0158 176.083184 -5.54915777E+003 -5.22707 5.61457 12 (Cm) n - 1
REM
REM Run started: Tue, 29 Sep 2020 13:37:42 +0100 in /scratch/scratch/uccabz1/launch_tmp/launcher_2020-09-28-16-32-40-772990
REM CASTEP 19.11| from code version Version unavailable
REM Functional Perdew Burke Ernzerhof Relativity Koelling-Harmon Dispersion off
REM Cut-off 340.0000 eV Grid scale 1.7500 Gmax 16.5316 1/A FBSC none
REM MP grid 4 4 2 Offset 0.000 0.000 0.000 No. kpts 14 Spacing 0.07
REM Total runtime: 34072.7 s
REM Overall efficiency: 97.75 %
REM
REM
REM
REM compiler GCC version 4.9.2
REM options -cpp -iprefix /scratch/UCL/applications/gcc/4.9.2/bin/../lib/gcc/x86_64-unknown-linux-gnu/4.9.2/ -mtune=corei7 -march=x86-64 -g -O2
REM COMMAND_LINE
REM seed 1075720810 -514153778 249242328 -2107350136 -536789793 -864236676 -1398234639 1041042472 -785883361 -1878882483 1863664318 -555003993
REM
REM S 3|1.8|5|6|7|30:31:32(qc=5)
REM O 2|1.5|12|13|15|20:21(qc=5)
REM Li 1|1.3|8|9|10|10U:20(qc=5)
REM Fe 3|2.2|2.0|1.0|8|9|10|40:41:32(qc=5)
REM 
CELL 1.54180    4.51758    4.51758   10.03987   83.99826  119.85312   97.24494
LATT -1
SFAC Li O  S  Fe 
Li     1 -1.0060500000000 -0.5619310000000 -0.0661880000000 1.0  -0.01
Li     1 -0.5042570000000 -0.0601380000000 -0.0661880000000 1.0  -0.01
Li     1 -0.7641760000000 -0.0637370000000  0.1720870000000 1.0   0.01
O      2  0.5795500000000  0.2776310000000  0.3014210000000 1.0  -0.12
O      2  0.0237900000000 -0.2781290000000  0.3014210000000 1.0  -0.12
O      2  0.3631700000000  0.2026340000000  0.0199590000000 1.0  -0.18
O      2 -0.1826760000000 -0.3432110000000  0.0199590000000 1.0  -0.18
S      3  0.6799530000000  0.4540320000000 -0.3627540000000 1.0   0.06
S      3  0.1832130000000 -0.0427070000000 -0.3627540000000 1.0   0.06
Fe     4 -0.7977980000000 -0.3581100000000  0.4975920000000 1.0  -1.03
Fe     4 -0.1442990000000  0.2953890000000  0.4975920000000 1.0  -1.03
Fe     4  0.7083050000000  0.4440780000000  0.1523830000000 1.0  -2.68
END
