TITL LFSO-Li2Fe3S3O-200912-185421-df6728 -0.0087 293.681154 -8.68161802E+003 -19.3576 19.6059 18 (Cmc21) n - 1
REM
REM Run started: Sun, 13 Sep 2020 14:21:31 +0100 in /lustre/scratch/uccabz1/launch_tmp/launcher_2020-09-12-17-54-19-524547
REM CASTEP 20.1 from code version af48c487+ pr-geom-scf-spinfix Tue Jun 2 15:39:59 2020 +0100
REM Functional Perdew Burke Ernzerhof Relativity Koelling-Harmon Dispersion off
REM Cut-off 340.0000 eV Grid scale 1.7500 Gmax 16.5316 1/A FBSC none
REM MP grid 5 5 2 Offset 0.000 0.000 0.000 No. kpts 13 Spacing 0.07
REM Total runtime: 70388.8 s
REM Overall efficiency: 90 %
REM
REM
REM
REM compiler GCC version 4.9.2
REM options -cpp -iprefix /lustre/shared/ucl/apps/gcc/4.9.2/bin/../lib/gcc/x86_64-unknown-linux-gnu/4.9.2/ -mtune=corei7 -march=x86-64 -g -Og
REM COMMAND_LINE
REM seed 35975277 1086155024 -189578674 1009478995 787695456 962443692 -326353218 168173560 -392865829 2027009364 1499235542 210866292
REM
REM S 3|1.8|5|6|7|30:31:32(qc=5)
REM O 2|1.5|12|13|15|20:21(qc=5)
REM Li 1|1.3|8|9|10|10U:20(qc=5)
REM Fe 3|2.2|2.0|1.0|8|9|10|40:41:32(qc=5)
REM 
CELL 1.54180    6.46530    6.46642   13.30845   90.00000   90.00000  148.14090
LATT -1
SFAC Li O  S  Fe 
Li     1 -0.5170760000000 -0.4760850000000  0.5627960000000 1.0   0.01
Li     1  0.5170760000000  0.4760850000000  0.0627960000000 1.0   0.01
Li     1  0.2501580000000 -0.2418610000000  0.2403190000000 1.0  -0.05
Li     1 -0.2501580000000  0.2418610000000 -0.2596810000000 1.0  -0.05
O      2  0.0070520000000 -0.0135090000000 -0.0054280000000 1.0  -0.28
O      2 -0.0070520000000  0.0135090000000  0.4945720000000 1.0  -0.28
S      3  0.2802290000000 -0.2729580000000 -0.4128850000000 1.0  -0.17
S      3 -0.2802290000000  0.2729580000000  0.0871150000000 1.0  -0.17
S      3 -0.3034100000000  0.3123240000000  0.3672480000000 1.0  -0.22
S      3  0.3034100000000 -0.3123240000000 -0.1327520000000 1.0  -0.22
S      3  0.4439880000000 -0.4386100000000  0.2491770000000 1.0  -0.17
S      3 -0.4439880000000  0.4386100000000 -0.2508230000000 1.0  -0.17
Fe     4 -0.1799260000000  0.1874890000000 -0.5135440000000 1.0  -2.52
Fe     4  0.1799260000000 -0.1874890000000 -0.0135440000000 1.0  -2.52
Fe     4 -0.0483890000000  0.0527660000000  0.3545780000000 1.0  -3.26
Fe     4  0.0483890000000 -0.0527660000000 -0.1454220000000 1.0  -3.26
Fe     4 -0.1480880000000  0.1404440000000 -0.0328070000000 1.0  -3.02
Fe     4  0.1480880000000 -0.1404440000000 -0.5328070000000 1.0  -3.02
END
