TITL LFSO-Li2Fe4S4O-200911-204726-b25092 0.0705 215.345342 -5.50521067E+003 0.727895 0.865439 11 (I4mm) n - 1
REM
REM Run started: Sat, 12 Sep 2020 02:27:21 +0100 in /lustre/scratch/uccabz1/launch_tmp/launcher_2020-09-11-19-47-24-662395
REM CASTEP 20.1 from code version af48c487+ pr-geom-scf-spinfix Tue Jun 2 15:39:59 2020 +0100
REM Functional Perdew Burke Ernzerhof Relativity Koelling-Harmon Dispersion off
REM Cut-off 340.0000 eV Grid scale 1.7500 Gmax 16.5316 1/A FBSC none
REM MP grid 3 3 4 Offset 0.000 0.000 0.000 No. kpts 12 Spacing 0.07
REM Total runtime: 20568.5 s
REM Overall efficiency: 96.8889 %
REM
REM
REM
REM compiler GCC version 4.9.2
REM options -cpp -iprefix /lustre/shared/ucl/apps/gcc/4.9.2/bin/../lib/gcc/x86_64-unknown-linux-gnu/4.9.2/ -mtune=corei7 -march=x86-64 -g -Og
REM COMMAND_LINE
REM seed 939012131 1457160297 -260931005 696640358 1854995289 -192806961 2110485436 -167905361 295469492 -256237735 1219061813 -1670607297
REM
REM S 3|1.8|5|6|7|30:31:32(qc=5)
REM O 2|1.5|12|13|15|20:21(qc=5)
REM Li 1|1.3|8|9|10|10U:20(qc=5)
REM Fe 3|2.2|2.0|1.0|8|9|10|40:41:32(qc=5)
REM 
CELL 1.54180    7.75796    7.75796    6.54944  126.31771  126.31771   90.00000
LATT -1
SFAC Li O  S  Fe 
Li     1  0.1701320000000 -0.3298680000000  0.3402650000000 1.0  -0.02
Li     1 -0.3298680000000  0.1701320000000  0.3402650000000 1.0  -0.02
O      2 -0.0393380000000 -0.0393380000000 -1.0786750000000 1.0  -0.01
S      3 -0.0830030000000 -0.0844840000000  0.3513270000000 1.0  -0.00
S      3  0.4343310000000  0.4358120000000  0.3513270000000 1.0  -0.00
S      3 -0.0844840000000  0.4343310000000  0.3513270000000 1.0  -0.00
S      3  0.4358120000000 -0.0830030000000  0.3513270000000 1.0  -0.00
Fe     4 -0.2316390000000  0.0996350000000 -0.1329900000000 1.0   0.20
Fe     4  0.0986490000000 -0.2326260000000 -0.1329900000000 1.0   0.20
Fe     4  0.0996350000000  0.0986490000000 -0.1329900000000 1.0   0.20
Fe     4 -0.2326260000000 -0.2316390000000 -0.1329900000000 1.0   0.20
END
