TITL LFSO-Li3Fe3S2O4-200929-171748-a7dec2 -0.4436 270.117444 -5.54766125E+003 7.08705 7.69661 12 (P3) n - 1
REM
REM Run started: Tue, 29 Sep 2020 22:44:19 +0100 in /lustre/scratch/uccabz1/launch_tmp/launcher_2020-09-29-16-17-46-816130
REM CASTEP 20.1 from code version af48c487+ pr-geom-scf-spinfix Tue Jun 2 15:39:59 2020 +0100
REM Functional Perdew Burke Ernzerhof Relativity Koelling-Harmon Dispersion off
REM Cut-off 340.0000 eV Grid scale 1.7500 Gmax 16.5316 1/A FBSC none
REM MP grid 4 4 2 Offset 0.000 0.000 0.000 No. kpts 16 Spacing 0.07
REM Total runtime: 23439.8 s
REM Overall efficiency: 97.5 %
REM
REM
REM
REM compiler GCC version 4.9.2
REM options -cpp -iprefix /lustre/shared/ucl/apps/gcc/4.9.2/bin/../lib/gcc/x86_64-unknown-linux-gnu/4.9.2/ -mtune=corei7 -march=x86-64 -g -Og
REM COMMAND_LINE
REM seed -513849267 2000885360 -1517631480 493791474 664704223 1813922420 -1580845558 1867980974 -2076987478 -1921190698 740500226 896782362
REM
REM S 3|1.8|5|6|7|30:31:32(qc=5)
REM O 2|1.5|12|13|15|20:21(qc=5)
REM Li 1|1.3|8|9|10|10U:20(qc=5)
REM Fe 3|2.2|2.0|1.0|8|9|10|40:41:32(qc=5)
REM 
CELL 1.54180    4.89564    4.89564   13.01377   90.00000   90.00000  120.00000
LATT -1
SFAC Li O  S  Fe 
Li     1  0.3679710000000  0.0036400000000  0.1101120000000 1.0  -0.06
Li     1 -0.0036400000000  0.3643310000000  0.1101120000000 1.0  -0.06
Li     1 -0.3643310000000 -0.3679710000000  0.1101120000000 1.0  -0.06
O      2  0.0048040000000 -0.2887670000000  0.1919570000000 1.0  -0.00
O      2  0.2887670000000  0.2935710000000  0.1919570000000 1.0  -0.00
O      2 -0.2935710000000 -0.0048040000000  0.1919570000000 1.0  -0.00
O      2  0.0000000000000 -0.0000000000000  0.0003430000000 1.0   0.11
S      3  0.0000000000000 -0.0000000000000 -0.7554500000000 1.0  -0.01
S      3 -0.3333330000000  0.3333330000000 -0.2252460000000 1.0   0.03
Fe     4 -0.1242340000000  0.2078890000000 -0.0975600000000 1.0   2.38
Fe     4 -0.2078890000000 -0.3321220000000 -0.0975600000000 1.0   2.38
Fe     4  0.3321220000000  0.1242340000000 -0.0975600000000 1.0   2.38
END
