TITL LFSO-LiFe3S4O-200909-102126-e350de -0.0125 375.552412 -8.88669186E+003 2.54732 3.37635 18 (Cm) n - 1
REM
REM Run started: Thu, 10 Sep 2020 08:33:41 +0100 in /lustre/scratch/uccabz1/launch_tmp/launcher_2020-09-09-09-21-24-246220
REM CASTEP 20.1 from code version af48c487+ pr-geom-scf-spinfix Tue Jun 2 15:39:59 2020 +0100
REM Functional Perdew Burke Ernzerhof Relativity Koelling-Harmon Dispersion off
REM Cut-off 340.0000 eV Grid scale 1.7500 Gmax 16.5316 1/A FBSC none
REM MP grid 3 3 2 Offset 0.000 0.000 0.000 No. kpts 6 Spacing 0.07
REM Total runtime: 80266 s
REM Overall efficiency: 96.4 %
REM
REM
REM
REM compiler GCC version 4.9.2
REM options -cpp -iprefix /lustre/shared/ucl/apps/gcc/4.9.2/bin/../lib/gcc/x86_64-unknown-linux-gnu/4.9.2/ -mtune=corei7 -march=x86-64 -g -Og
REM COMMAND_LINE
REM seed -939967513 -1900507861 -197715075 1871256996 -324579435 598701699 -655027581 -2115506184 1514856256 2073168226 1568326261 478620180
REM
REM S 3|1.8|5|6|7|30:31:32(qc=5)
REM O 2|1.5|12|13|15|20:21(qc=5)
REM Li 1|1.3|8|9|10|10U:20(qc=5)
REM Fe 3|2.2|2.0|1.0|8|9|10|40:41:32(qc=5)
REM 
CELL 1.54180    7.67376    7.67376    9.16160  113.65986  113.65986   51.00148
LATT -1
SFAC Li O  S  Fe 
Li     1 -0.3489380000000  0.1480900000000  0.1087260000000 1.0  -0.00
Li     1  0.1480900000000 -0.3489380000000  0.1087260000000 1.0  -0.00
O      2  0.1952430000000 -0.2832650000000 -0.0353740000000 1.0  -0.01
O      2 -0.2832650000000  0.1952430000000 -0.0353740000000 1.0  -0.01
S      3 -0.0228670000000  0.5071810000000  0.1607500000000 1.0  -0.06
S      3  0.5071810000000 -0.0228670000000  0.1607500000000 1.0  -0.06
S      3  0.3820650000000 -0.3024730000000  0.3714070000000 1.0   0.02
S      3 -0.3024730000000  0.3820650000000  0.3714070000000 1.0   0.02
S      3 -0.4390490000000  0.0547200000000 -0.4339300000000 1.0  -0.03
S      3  0.0547200000000 -0.4390490000000 -0.4339300000000 1.0  -0.03
S      3  0.3435450000000 -0.1695790000000 -0.2288080000000 1.0  -0.03
S      3 -0.1695790000000  0.3435450000000 -0.2288080000000 1.0  -0.03
Fe     4 -0.1573530000000 -0.4640160000000  0.3394420000000 1.0   1.11
Fe     4 -0.4640160000000 -0.1573530000000  0.3394420000000 1.0   1.11
Fe     4 -0.2594370000000 -0.5726720000000 -0.0071670000000 1.0   0.12
Fe     4 -0.5726720000000 -0.2594370000000 -0.0071670000000 1.0   0.12
Fe     4 -0.2214460000000  0.1036720000000 -0.2312050000000 1.0   0.16
Fe     4  0.1036720000000 -0.2214460000000 -0.2312050000000 1.0   0.16
END
