TITL LFSO-LiFe3S3O2-200909-125506-0aa9c7 -0.0219 257.077348 -9.15759042E+003 -0.315080E-03 0.699539E-03 18 (Pc) n - 1
REM
REM Run started: Thu, 10 Sep 2020 09:21:44 +0100 in /lustre/scratch/uccabz1/launch_tmp/launcher_2020-09-09-11-55-04-630432
REM CASTEP 20.1 from code version af48c487+ pr-geom-scf-spinfix Tue Jun 2 15:39:59 2020 +0100
REM Functional Perdew Burke Ernzerhof Relativity Koelling-Harmon Dispersion off
REM Cut-off 340.0000 eV Grid scale 1.7500 Gmax 16.5316 1/A FBSC none
REM MP grid 5 2 2 Offset 0.000 0.000 0.000 No. kpts 6 Spacing 0.07
REM Total runtime: 73923.5 s
REM Overall efficiency: 97.9 %
REM
REM
REM
REM compiler GCC version 4.9.2
REM options -cpp -iprefix /lustre/shared/ucl/apps/gcc/4.9.2/bin/../lib/gcc/x86_64-unknown-linux-gnu/4.9.2/ -mtune=corei7 -march=x86-64 -g -Og
REM COMMAND_LINE
REM seed -712523476 802359748 898442955 -865004942 1510746194 791923775 1056998763 803007946 -1564171398 -22378408 -1738983884 -1369033836
REM
REM S 3|1.8|5|6|7|30:31:32(qc=5)
REM O 2|1.5|12|13|15|20:21(qc=5)
REM Li 1|1.3|8|9|10|10U:20(qc=5)
REM Fe 3|2.2|2.0|1.0|8|9|10|40:41:32(qc=5)
REM 
CELL 1.54180    3.24603   10.26088    8.59874   63.84665   90.00000   90.00000
LATT -1
SFAC Li O  S  Fe 
Li     1 -0.4168180000000 -0.1484680000000 -0.4059320000000 1.0
Li     1  0.4168180000000  0.3515320000000 -0.4059320000000 1.0
O      2 -0.4964750000000  0.2345210000000  0.1645750000000 1.0
O      2  0.4964750000000 -0.2654790000000  0.1645750000000 1.0
O      2 -0.5213150000000  0.1813020000000 -0.4536150000000 1.0
O      2  0.5213150000000 -0.3186980000000 -0.4536150000000 1.0
S      3  0.0216820000000 -0.0561080000000  0.3031570000000 1.0
S      3 -0.0216820000000  0.4438920000000  0.3031570000000 1.0
S      3  0.5142610000000  0.1055290000000 -0.0456950000000 1.0
S      3 -0.5142610000000  0.6055290000000 -0.0456950000000 1.0
S      3  0.0062630000000  0.3936090000000 -0.1818380000000 1.0
S      3 -0.0062630000000 -0.1063910000000 -0.1818380000000 1.0
Fe     4 -0.4915760000000 -0.4569540000000 -0.2421080000000 1.0
Fe     4  0.4915760000000  0.0430460000000 -0.2421080000000 1.0
Fe     4 -0.4776610000000 -0.2025410000000  0.3224480000000 1.0
Fe     4  0.4776610000000  0.2974590000000  0.3224480000000 1.0
Fe     4 -0.0199800000000 -0.3265300000000  0.0671410000000 1.0
Fe     4  0.0199800000000  0.1734700000000  0.0671410000000 1.0
END
