TITL LFSO-Li2Fe2S2O-200913-121804-50685a 0.3192 917.784852 -3.17177951E+003 4.00002 4.59496 7 (Fmmm) n - 1
REM
REM Run started: Mon, 14 Sep 2020 11:19:19 +0100 in /lustre/scratch/uccabz1/launch_tmp/launcher_2020-09-14-05-56-13-708092
REM CASTEP 20.1 from code version af48c487+ pr-geom-scf-spinfix Tue Jun 2 15:39:59 2020 +0100
REM Functional Perdew Burke Ernzerhof Relativity Koelling-Harmon Dispersion off
REM Cut-off 340.0000 eV Grid scale 1.7500 Gmax 16.5316 1/A FBSC none
REM MP grid 4 3 3 Offset 0.000 0.000 0.000 No. kpts 12 Spacing 0.07
REM Total runtime: 77339.4 s
REM Overall efficiency: 96.9231 %
REM
REM
REM
REM compiler GCC version 4.9.2
REM options -cpp -iprefix /lustre/shared/ucl/apps/gcc/4.9.2/bin/../lib/gcc/x86_64-unknown-linux-gnu/4.9.2/ -mtune=corei7 -march=x86-64 -g -Og
REM COMMAND_LINE
REM seed -245548870 -388862464 1649023283 1241276844 -712516148 877068243 1002464755 1385051741 485402832 -2069906143 -1403544595 -1925943443
REM
REM S 3|1.8|5|6|7|30:31:32(qc=5)
REM O 2|1.5|12|13|15|20:21(qc=5)
REM Li 1|1.3|8|9|10|10U:20(qc=5)
REM Fe 3|2.2|2.0|1.0|8|9|10|40:41:32(qc=5)
REM 
CELL 1.54180    5.25860   35.66230   35.66230  170.18580   92.90834   92.90834
LATT -1
SFAC Li O  S  Fe 
Li     1  0.4507350000000 -0.2737060000000 -0.2737060000000 1.0  -0.10
Li     1 -0.4507350000000  0.2737060000000  0.2737060000000 1.0  -0.10
O      2 -0.0000000000000 -0.5000000000000 -0.5000000000000 1.0   0.14
S      3 -0.0000000000000 -0.0240360000000  0.0240360000000 1.0   0.12
S      3 -0.0000000000000  0.0240360000000 -0.0240360000000 1.0   0.12
Fe     4 -0.0008560000000  0.2048720000000  0.2048720000000 1.0   1.91
Fe     4  0.0008560000000 -0.2048720000000 -0.2048720000000 1.0   1.91
END
