TITL LFSO-Li4Fe2SO4-200910-134729-ad207f 0.0124 557.761622 -9.16289539E+003 15.3598 15.8138 22 (Cm) n - 1
REM
REM Run started: Fri, 11 Sep 2020 15:11:24 +0100 in /lustre/scratch/uccabz1/launch_tmp/launcher_2020-09-10-12-47-27-774534
REM CASTEP 20.1 from code version af48c487+ pr-geom-scf-spinfix Tue Jun 2 15:39:59 2020 +0100
REM Functional Perdew Burke Ernzerhof Relativity Koelling-Harmon Dispersion off
REM Cut-off 340.0000 eV Grid scale 1.7500 Gmax 16.5316 1/A FBSC none
REM MP grid 3 3 2 Offset 0.000 0.000 0.000 No. kpts 9 Spacing 0.07
REM Total runtime: 106640 s
REM Overall efficiency: 98.8462 %
REM
REM
REM
REM compiler GCC version 4.9.2
REM options -cpp -iprefix /lustre/shared/ucl/apps/gcc/4.9.2/bin/../lib/gcc/x86_64-unknown-linux-gnu/4.9.2/ -mtune=corei7 -march=x86-64 -g -Og
REM COMMAND_LINE
REM seed 630371018 -75549525 295948058 -1007559113 -1919171026 1351847755 2117816457 -1150467855 1717832916 -1076916019 -1935815445 1699034034
REM
REM S 3|1.8|5|6|7|30:31:32(qc=5)
REM O 2|1.5|12|13|15|20:21(qc=5)
REM Li 1|1.3|8|9|10|10U:20(qc=5)
REM Fe 3|2.2|2.0|1.0|8|9|10|40:41:32(qc=5)
REM 
CELL 1.54180   10.86570    8.02449   10.52359   79.46236   58.91867   47.38777
LATT -1
SFAC Li O  S  Fe 
Li     1 -0.2804190000000 -0.0692670000000  0.1504780000000 1.0  -0.01
Li     1  0.1992080000000 -0.0692670000000  0.1504780000000 1.0  -0.01
Li     1  0.2971190000000  0.3990480000000 -0.4719010000000 1.0  -0.01
Li     1 -0.2242660000000  0.3990480000000 -0.4719010000000 1.0  -0.01
Li     1 -0.4303880000000 -0.0817010000000  0.4621530000000 1.0   0.04
Li     1  0.0499360000000 -0.0817010000000  0.4621530000000 1.0   0.04
Li     1 -0.1297460000000 -0.0572190000000 -0.1227570000000 1.0   0.02
Li     1  0.3097210000000 -0.0572190000000 -0.1227570000000 1.0   0.02
O      2 -0.3051540000000 -0.3846970000000  0.4074870000000 1.0   0.36
O      2  0.2823640000000 -0.3846970000000  0.4074870000000 1.0   0.36
O      2  0.6523490000000  0.2051970000000  0.0594150000000 1.0   0.24
O      2  0.0830390000000  0.2051970000000  0.0594150000000 1.0   0.24
O      2 -0.0286160000000  0.1331220000000  0.3470420000000 1.0   0.31
O      2 -0.4515480000000  0.1331220000000  0.3470420000000 1.0   0.31
O      2 -0.0596710000000 -0.2934830000000 -0.0302100000000 1.0   0.33
O      2  0.3833630000000 -0.2934830000000 -0.0302100000000 1.0   0.33
S      3 -0.2161490000000  0.1879300000000 -0.2828250000000 1.0   0.25
S      3  0.3110440000000  0.1879300000000 -0.2828250000000 1.0   0.25
Fe     4  0.0777880000000  0.4112370000000 -0.0527640000000 1.0   3.06
Fe     4  0.5637390000000  0.4112370000000 -0.0527640000000 1.0   3.06
Fe     4 -0.1297300000000  0.3631080000000  0.2591100000000 1.0   3.09
Fe     4 -0.4924870000000  0.3631080000000  0.2591100000000 1.0   3.09
END
