TITL LFSO-Li4Fe2SO3-200910-224454-3f613a 0.1048 334.925077 -8.28530513E+003 5.99666 6.82702 20 (P3) n - 1
REM
REM Run started: Fri, 11 Sep 2020 17:50:07 +0100 in /lustre/scratch/uccabz1/launch_tmp/launcher_2020-09-10-21-44-53-029136
REM CASTEP 20.1 from code version af48c487+ pr-geom-scf-spinfix Tue Jun 2 15:39:59 2020 +0100
REM Functional Perdew Burke Ernzerhof Relativity Koelling-Harmon Dispersion off
REM Cut-off 340.0000 eV Grid scale 1.7500 Gmax 16.5316 1/A FBSC none
REM MP grid 3 3 2 Offset 0.000 0.000 0.000 No. kpts 5 Spacing 0.07
REM Total runtime: 78577.6 s
REM Overall efficiency: 74 %
REM
REM
REM
REM compiler GCC version 4.9.2
REM options -cpp -iprefix /lustre/shared/ucl/apps/gcc/4.9.2/bin/../lib/gcc/x86_64-unknown-linux-gnu/4.9.2/ -mtune=corei7 -march=x86-64 -g -Og
REM COMMAND_LINE
REM seed -1091917853 512034697 -716731635 1453613782 -2009827388 103653514 -42473880 1368444151 1860326103 1482208452 1942538918 -1415339769
REM
REM S 3|1.8|5|6|7|30:31:32(qc=5)
REM O 2|1.5|12|13|15|20:21(qc=5)
REM Li 1|1.3|8|9|10|10U:20(qc=5)
REM Fe 3|2.2|2.0|1.0|8|9|10|40:41:32(qc=5)
REM 
CELL 1.54180    6.41904    6.41904    9.38591   90.00000   90.00000  120.00000
LATT -1
SFAC Li O  S  Fe 
Li     1 -0.4691090000000 -0.5051220000000  0.3843320000000 1.0  -0.02
Li     1  0.5051220000000  0.0360130000000  0.3843320000000 1.0  -0.02
Li     1 -0.0360130000000  0.4691090000000  0.3843320000000 1.0  -0.02
Li     1  0.4817010000000  0.5177140000000 -0.2466730000000 1.0  -0.03
Li     1 -0.5177140000000 -0.0360140000000 -0.2466730000000 1.0  -0.03
Li     1  0.0360140000000 -0.4817010000000 -0.2466730000000 1.0  -0.03
Li     1  0.0000000000000 -0.0000000000000  0.2791720000000 1.0  -0.05
Li     1  0.0000000000000 -0.0000000000000 -0.1288440000000 1.0  -0.17
O      2  0.1873880000000 -0.1860130000000 -0.3455430000000 1.0   0.13
O      2  0.1860130000000  0.3734010000000 -0.3455430000000 1.0   0.13
O      2 -0.3734010000000 -0.1873880000000 -0.3455430000000 1.0   0.13
O      2 -0.1770760000000 -0.3783140000000  0.2761350000000 1.0   0.01
O      2  0.3783140000000 -0.7987620000000  0.2761350000000 1.0   0.01
O      2  0.7987620000000  0.1770760000000  0.2761350000000 1.0   0.01
S      3 -0.3333330000000  0.3333330000000 -0.0360820000000 1.0   0.04
S      3 -0.3333330000000  0.3333330000000  0.6023340000000 1.0  -0.04
Fe     4 -0.1200010000000 -0.2405280000000 -0.3774980000000 1.0   2.00
Fe     4  0.2405280000000  0.1205270000000 -0.3774980000000 1.0   2.00
Fe     4 -0.1205270000000  0.1200010000000 -0.3774980000000 1.0   2.00
Fe     4 -0.3333330000000  0.3333330000000  0.1933410000000 1.0  -0.06
END
