TITL LFSO-Li2Fe4S2O3-200912-130431-fefe03 -0.0268 300.372449 -1.15465747E+004 -0.103373 0.248309 22 (Cm) n - 1
REM
REM Run started: Mon, 14 Sep 2020 08:23:29 +0100 in /lustre/scratch/uccabz1/launch_tmp/launcher_2020-09-14-06-14-21-547235
REM CASTEP 20.1 from code version af48c487+ pr-geom-scf-spinfix Tue Jun 2 15:39:59 2020 +0100
REM Functional Perdew Burke Ernzerhof Relativity Koelling-Harmon Dispersion off
REM Cut-off 340.0000 eV Grid scale 1.7500 Gmax 16.5316 1/A FBSC none
REM MP grid 4 4 2 Offset 0.000 0.000 0.000 No. kpts 10 Spacing 0.07
REM Total runtime: 149884 s
REM Overall efficiency: 87.1 %
REM
REM
REM
REM compiler GCC version 4.9.2
REM options -cpp -iprefix /lustre/shared/ucl/apps/gcc/4.9.2/bin/../lib/gcc/x86_64-unknown-linux-gnu/4.9.2/ -mtune=corei7 -march=x86-64 -g -Og
REM COMMAND_LINE
REM seed 1174609500 -493478879 -327766732 572134519 1317436365 -143882287 1750507038 333206532 656345586 1195668926 859298480 -255985638
REM
REM S 3|1.8|5|6|7|30:31:32(qc=5)
REM O 2|1.5|12|13|15|20:21(qc=5)
REM Li 1|1.3|8|9|10|10U:20(qc=5)
REM Fe 3|2.2|2.0|1.0|8|9|10|40:41:32(qc=5)
REM 
CELL 1.54180    4.67913    4.67913   13.86779   93.88613   93.88613   83.40897
LATT -1
SFAC Li O  S  Fe 
Li     1  0.5506280000000  0.0671210000000 -0.1829230000000 1.0  -0.00
Li     1  0.0671210000000  0.5506280000000 -0.1829230000000 1.0  -0.00
Li     1  0.1160680000000  0.6011260000000  0.0912960000000 1.0  -0.00
Li     1  0.6011260000000  0.1160680000000  0.0912960000000 1.0  -0.00
O      2 -0.4141890000000  0.0896420000000 -0.0406260000000 1.0   0.00
O      2  0.0896420000000 -0.4141890000000 -0.0406260000000 1.0   0.00
O      2 -0.3446470000000  0.1569910000000  0.3779720000000 1.0  -0.00
O      2  0.1569910000000 -0.3446470000000  0.3779720000000 1.0  -0.00
O      2  0.3128790000000 -0.1998450000000 -0.1996710000000 1.0   0.00
O      2 -0.1998450000000  0.3128790000000 -0.1996710000000 1.0   0.00
S      3  0.4481410000000 -0.1953450000000  0.2011770000000 1.0  -0.00
S      3 -0.1953450000000  0.4481410000000  0.2011770000000 1.0  -0.00
S      3  0.0118350000000 -0.4831670000000 -0.4109670000000 1.0   0.00
S      3 -0.4831670000000  0.0118350000000 -0.4109670000000 1.0   0.00
Fe     4  0.3308960000000 -0.0246500000000  0.3482140000000 1.0  -0.02
Fe     4 -0.0246500000000  0.3308960000000  0.3482140000000 1.0  -0.02
Fe     4 -0.1594650000000  0.1741080000000  0.4985530000000 1.0  -0.05
Fe     4  0.1741080000000 -0.1594650000000  0.4985530000000 1.0  -0.05
Fe     4 -0.1407740000000  0.1992560000000 -0.3260250000000 1.0   0.01
Fe     4  0.1992560000000 -0.1407740000000 -0.3260250000000 1.0   0.01
Fe     4 -0.5872120000000 -0.2454500000000 -0.0674910000000 1.0  -0.01
Fe     4 -0.2454500000000 -0.5872120000000 -0.0674910000000 1.0  -0.01
END
