TITL LFSO-Li3FeS2O-200911-193108-642fe8 0.0022 219.611134 -5.01458847E+003 0.109232E-01 0.558687 14 (P4bm) n - 1
REM
REM Run started: Fri, 11 Sep 2020 20:05:53 +0100 in /lustre/scratch/uccabz1/launch_tmp/launcher_2020-09-11-18-31-07-054889
REM CASTEP 20.1 from code version af48c487+ pr-geom-scf-spinfix Tue Jun 2 15:39:59 2020 +0100
REM Functional Perdew Burke Ernzerhof Relativity Koelling-Harmon Dispersion off
REM Cut-off 340.0000 eV Grid scale 1.7500 Gmax 16.5316 1/A FBSC none
REM MP grid 3 3 3 Offset 0.000 0.000 0.000 No. kpts 6 Spacing 0.07
REM Total runtime: 2321.34 s
REM Overall efficiency: 95.8 %
REM
REM
REM
REM compiler GCC version 4.9.2
REM options -cpp -iprefix /lustre/shared/ucl/apps/gcc/4.9.2/bin/../lib/gcc/x86_64-unknown-linux-gnu/4.9.2/ -mtune=corei7 -march=x86-64 -g -Og
REM COMMAND_LINE
REM seed -1169702748 1401026037 -2068452848 -838250337 1060443874 100001189 -668820123 -830264349 -1915683123 18373038 545772241 1232539193
REM
REM S 3|1.8|5|6|7|30:31:32(qc=5)
REM O 2|1.5|12|13|15|20:21(qc=5)
REM Li 1|1.3|8|9|10|10U:20(qc=5)
REM Fe 3|2.2|2.0|1.0|8|9|10|40:41:32(qc=5)
REM 
CELL 1.54180    5.94084    5.94084    6.22242   90.00000   90.00000   90.00000
LATT -1
SFAC Li O  S  Fe 
Li     1  0.2359140000000  0.2641030000000 -0.2078150000000 1.0   0.00
Li     1 -0.2359140000000 -0.2641030000000 -0.2078150000000 1.0   0.00
Li     1 -0.2641030000000  0.2359140000000 -0.2078150000000 1.0   0.00
Li     1  0.2641030000000 -0.2359140000000 -0.2078150000000 1.0   0.00
Li     1 -0.5000000000000  0.0000000000000  0.4557720000000 1.0   0.00
Li     1 -0.0000000000000 -0.5000000000000  0.4557720000000 1.0   0.00
O      2 -0.0000000000000 -0.5000000000000 -0.2562710000000 1.0   0.00
O      2 -0.5000000000000  0.0000000000000 -0.2562710000000 1.0   0.00
S      3  0.2501520000000  0.2503760000000  0.1931530000000 1.0   0.00
S      3 -0.2501520000000 -0.2503760000000  0.1931530000000 1.0   0.00
S      3 -0.2503760000000  0.2501520000000  0.1931530000000 1.0   0.00
S      3  0.2503760000000 -0.2501520000000  0.1931530000000 1.0   0.00
Fe     4 -0.0000000000000  0.5000000000000  0.0604850000000 1.0   0.01
Fe     4  0.5000000000000  0.0000000000000  0.0604850000000 1.0   0.01
END
