TITL LFSO-Li5FeS2O2-200921-003005-c4f93e -0.0065 339.224758 -6.69261583E+003 7.99907 8.15464 20 (P3) n - 1
REM
REM Run started: Mon, 21 Sep 2020 08:54:07 +0100 in /lustre/scratch/uccabz1/launch_tmp/launcher_2020-09-20-23-30-03-245604
REM CASTEP 20.1 from code version af48c487+ pr-geom-scf-spinfix Tue Jun 2 15:39:59 2020 +0100
REM Functional Perdew Burke Ernzerhof Relativity Koelling-Harmon Dispersion off
REM Cut-off 340.0000 eV Grid scale 1.7500 Gmax 16.5316 1/A FBSC none
REM MP grid 3 3 2 Offset 0.000 0.000 0.000 No. kpts 5 Spacing 0.07
REM Total runtime: 30344 s
REM Overall efficiency: 72.2727 %
REM
REM
REM
REM compiler GCC version 4.9.2
REM options -cpp -iprefix /lustre/shared/ucl/apps/gcc/4.9.2/bin/../lib/gcc/x86_64-unknown-linux-gnu/4.9.2/ -mtune=corei7 -march=x86-64 -g -Og
REM COMMAND_LINE
REM seed -1270035497 -1347398870 1606658841 -1320257191 -989795318 -29377049 1302305858 1027808352 176007274 1925231464 711390218 1446474608
REM
REM S 3|1.8|5|6|7|30:31:32(qc=5)
REM O 2|1.5|12|13|15|20:21(qc=5)
REM Li 1|1.3|8|9|10|10U:20(qc=5)
REM Fe 3|2.2|2.0|1.0|8|9|10|40:41:32(qc=5)
REM 
CELL 1.54180    6.64166    6.64166    8.87981   90.00000   90.00000  120.00000
LATT -1
SFAC Li O  S  Fe 
Li     1  0.3589060000000  0.0507470000000 -0.6804740000000 1.0   0.00
Li     1 -0.0507470000000  0.3081590000000 -0.6804740000000 1.0   0.00
Li     1 -0.3081590000000 -0.3589060000000 -0.6804740000000 1.0   0.00
Li     1 -0.0599860000000 -0.4749670000000 -0.3138050000000 1.0   0.00
Li     1  0.4749670000000  0.4149810000000 -0.3138050000000 1.0   0.00
Li     1 -0.4149810000000  0.0599860000000 -0.3138050000000 1.0   0.00
Li     1 -0.6798110000000  0.0905750000000 -0.0543060000000 1.0  -0.02
Li     1 -0.0905750000000 -0.7703860000000 -0.0543060000000 1.0  -0.02
Li     1  0.7703860000000  0.6798110000000 -0.0543060000000 1.0  -0.02
Li     1  0.3333330000000 -0.3333330000000  0.1191740000000 1.0   0.05
O      2 -0.0972480000000  0.2339080000000 -0.2751220000000 1.0   0.23
O      2 -0.2339080000000 -0.3311560000000 -0.2751220000000 1.0   0.23
O      2  0.3311560000000  0.0972480000000 -0.2751220000000 1.0   0.23
O      2 -0.0000000000000  0.0000000000000 -0.0506560000000 1.0   0.25
S      3  0.6539310000000  0.0151970000000  0.1584410000000 1.0   0.12
S      3 -0.0151970000000 -0.3612660000000  0.1584410000000 1.0   0.12
S      3  0.3612660000000 -0.6539310000000  0.1584410000000 1.0   0.12
S      3 -0.0000000000000  0.0000000000000  0.4249870000000 1.0   0.06
Fe     4 -0.0000000000000  0.0000000000000 -0.2773940000000 1.0   3.82
Fe     4 -0.0000000000000  0.0000000000000  0.1613710000000 1.0   2.80
END
