TITL LFSO-Li2Fe3S3O-200912-192144-eb369b -0.0219 303.560696 -8.68007839E+003 -0.577181E-01 0.262886 18 (P-1) n - 1
REM
REM Run started: Mon, 14 Sep 2020 01:35:15 +0100 in /lustre/scratch/uccabz1/launch_tmp/launcher_2020-09-12-18-21-42-391192
REM CASTEP 20.1 from code version af48c487+ pr-geom-scf-spinfix Tue Jun 2 15:39:59 2020 +0100
REM Functional Perdew Burke Ernzerhof Relativity Koelling-Harmon Dispersion off
REM Cut-off 340.0000 eV Grid scale 1.7500 Gmax 16.5316 1/A FBSC none
REM MP grid 5 2 2 Offset 0.000 0.000 0.000 No. kpts 10 Spacing 0.07
REM Total runtime: 117492 s
REM Overall efficiency: 92.8333 %
REM
REM
REM
REM compiler GCC version 4.9.2
REM options -cpp -iprefix /lustre/shared/ucl/apps/gcc/4.9.2/bin/../lib/gcc/x86_64-unknown-linux-gnu/4.9.2/ -mtune=corei7 -march=x86-64 -g -Og
REM COMMAND_LINE
REM seed 2117548302 -1819264845 1449044273 -1930073873 -985599511 812445888 -2038811931 -1352743893 -520599608 2047718918 1162836326 -1516148394
REM
REM S 3|1.8|5|6|7|30:31:32(qc=5)
REM O 2|1.5|12|13|15|20:21(qc=5)
REM Li 1|1.3|8|9|10|10U:20(qc=5)
REM Fe 3|2.2|2.0|1.0|8|9|10|40:41:32(qc=5)
REM 
CELL 1.54180    3.60429    9.29972   10.57502  119.31003   97.38308   93.26952
LATT -1
SFAC Li O  S  Fe 
Li     1  0.1169650000000  0.3387700000000  0.1326010000000 1.0   0.00
Li     1 -0.1169650000000 -0.3387700000000 -0.1326010000000 1.0   0.00
Li     1 -0.0301870000000 -0.0413790000000 -0.2565460000000 1.0  -0.00
Li     1  0.0301870000000  0.0413790000000  0.2565460000000 1.0  -0.00
O      2 -0.1247840000000 -0.2609730000000 -0.2740790000000 1.0  -0.00
O      2  0.1247840000000  0.2609730000000  0.2740790000000 1.0  -0.00
S      3  0.3226970000000 -0.1971250000000 -0.4526790000000 1.0   0.00
S      3 -0.3226970000000  0.1971250000000  0.4526790000000 1.0   0.00
S      3 -0.0969810000000  0.2531040000000 -0.1206450000000 1.0  -0.00
S      3  0.0969810000000 -0.2531040000000  0.1206450000000 1.0  -0.00
S      3 -0.3230620000000 -0.4687480000000  0.2710220000000 1.0  -0.00
S      3  0.3230620000000  0.4687480000000 -0.2710220000000 1.0  -0.00
Fe     4  0.2177280000000  0.3555190000000 -0.5058630000000 1.0   0.04
Fe     4 -0.2177280000000 -0.3555190000000  0.5058630000000 1.0   0.04
Fe     4 -0.4282370000000 -0.3965200000000  0.1062750000000 1.0   0.00
Fe     4  0.4282370000000  0.3965200000000 -0.1062750000000 1.0   0.00
Fe     4 -0.3485000000000  0.3272040000000  0.3193670000000 1.0  -0.03
Fe     4  0.3485000000000 -0.3272040000000 -0.3193670000000 1.0  -0.03
END
