TITL LFSO-Li4Fe2S4O-200910-184419-f420fc 0.0287 394.562067 -8.35655923E+003 10.8508 11.5637 22 (I4) n - 1
REM
REM Run started: Fri, 11 Sep 2020 05:13:09 +0100 in /lustre/scratch/uccabz1/launch_tmp/launcher_2020-09-10-22-11-18-894213
REM CASTEP 20.1 from code version af48c487+ pr-geom-scf-spinfix Tue Jun 2 15:39:59 2020 +0100
REM Functional Perdew Burke Ernzerhof Relativity Koelling-Harmon Dispersion off
REM Cut-off 340.0000 eV Grid scale 1.7500 Gmax 16.5316 1/A FBSC none
REM MP grid 3 3 3 Offset 0.000 0.000 0.000 No. kpts 6 Spacing 0.07
REM Total runtime: 35885.4 s
REM Overall efficiency: 98.8 %
REM
REM
REM
REM compiler GCC version 4.9.2
REM options -cpp -iprefix /lustre/shared/ucl/apps/gcc/4.9.2/bin/../lib/gcc/x86_64-unknown-linux-gnu/4.9.2/ -mtune=corei7 -march=x86-64 -g -Og
REM COMMAND_LINE
REM seed -137457122 822301576 -1890431806 -1385471680 -317987663 1698791070 -1069218809 -473194575 1412204781 -1229330766 407437366 -2073348100
REM
REM S 3|1.8|5|6|7|30:31:32(qc=5)
REM O 2|1.5|12|13|15|20:21(qc=5)
REM Li 1|1.3|8|9|10|10U:20(qc=5)
REM Fe 3|2.2|2.0|1.0|8|9|10|40:41:32(qc=5)
REM 
CELL 1.54180    8.40973    8.40973    8.40973   83.73062  123.68327  123.68327
LATT -1
SFAC Li O  S  Fe 
Li     1  0.4150000000000  0.3255600000000 -0.4463300000000 1.0   0.01
Li     1 -0.4150000000000  0.1386700000000 -0.0894400000000 1.0   0.01
Li     1  0.2281090000000 -0.4463300000000  0.1386700000000 1.0   0.01
Li     1 -0.2281090000000 -0.0894400000000  0.3255600000000 1.0   0.01
Li     1 -0.2345820000000  0.5810310000000 -0.0375410000000 1.0  -0.00
Li     1  0.2345820000000  0.1970410000000 -0.1843870000000 1.0  -0.00
Li     1 -0.6185720000000 -0.0375410000000  0.1970410000000 1.0  -0.00
Li     1  0.6185720000000 -0.1843870000000  0.5810310000000 1.0  -0.00
O      2  0.5000000000000 -0.0457290000000 -0.5457290000000 1.0   0.06
O      2  0.5000000000000 -0.5457290000000 -0.0457290000000 1.0   0.06
S      3 -0.1278160000000  0.1761170000000 -0.4401910000000 1.0   0.02
S      3  0.1278160000000 -0.3123750000000  0.3039330000000 1.0   0.02
S      3 -0.6163080000000 -0.4401910000000 -0.3123750000000 1.0   0.02
S      3  0.6163080000000  0.3039330000000  0.1761170000000 1.0   0.02
S      3  0.1600060000000 -0.0219530000000 -0.4369350000000 1.0   0.06
S      3 -0.1600060000000  0.4030590000000 -0.1819590000000 1.0   0.06
S      3 -0.4149820000000 -0.4369350000000  0.4030590000000 1.0   0.06
S      3  0.4149820000000 -0.1819590000000 -0.0219530000000 1.0   0.06
Fe     4  0.2690030000000 -0.2359120000000 -0.3717340000000 1.0   2.59
Fe     4 -0.2690030000000  0.3592630000000  0.4950850000000 1.0   2.59
Fe     4 -0.1358220000000 -0.3717340000000  0.3592630000000 1.0   2.59
Fe     4  0.1358220000000  0.4950850000000 -0.2359120000000 1.0   2.59
END
