TITL LFSO-Li3Fe3S2O4-200928-231003-e6cfb4 0.0655 343.072681 -1.10961117E+004 17.0453 17.5301 24 (I222) n - 1
REM
REM Run started: Tue, 29 Sep 2020 10:45:24 +0100 in /lustre/scratch/uccabz1/launch_tmp/launcher_2020-09-28-22-10-01-169600
REM CASTEP 20.1 from code version af48c487+ pr-geom-scf-spinfix Tue Jun 2 15:39:59 2020 +0100
REM Functional Perdew Burke Ernzerhof Relativity Koelling-Harmon Dispersion off
REM Cut-off 340.0000 eV Grid scale 1.7500 Gmax 16.5316 1/A FBSC none
REM MP grid 3 3 3 Offset 0.000 0.000 0.000 No. kpts 8 Spacing 0.07
REM Total runtime: 44010.9 s
REM Overall efficiency: 98.6667 %
REM
REM
REM
REM compiler GCC version 4.9.2
REM options -cpp -iprefix /lustre/shared/ucl/apps/gcc/4.9.2/bin/../lib/gcc/x86_64-unknown-linux-gnu/4.9.2/ -mtune=corei7 -march=x86-64 -g -Og
REM COMMAND_LINE
REM seed -241915712 -1549025406 -1660395039 2121505126 -1699136004 -1899727345 -1162768397 -980058514 1147159422 -1005718029 709443579 -249780631
REM
REM S 3|1.8|5|6|7|30:31:32(qc=5)
REM O 2|1.5|12|13|15|20:21(qc=5)
REM Li 1|1.3|8|9|10|10U:20(qc=5)
REM Fe 3|2.2|2.0|1.0|8|9|10|40:41:32(qc=5)
REM 
CELL 1.54180    7.59392    8.05298    8.05298   55.38931   61.86846   61.86846
LATT -1
SFAC Li O  S  Fe 
Li     1  0.0626240000000  0.1518510000000 -0.6354160000000 1.0   0.01
Li     1 -0.0626240000000  0.6354160000000 -0.1518510000000 1.0   0.01
Li     1  0.4209400000000 -0.6354160000000  0.1518510000000 1.0   0.01
Li     1 -0.4209400000000 -0.1518510000000  0.6354160000000 1.0   0.01
Li     1 -0.5000000000000  0.1500820000000 -0.1500820000000 1.0   0.01
Li     1  0.5000000000000 -0.1500820000000  0.1500820000000 1.0   0.01
O      2  0.2037410000000  0.1154490000000  0.1194950000000 1.0   0.19
O      2 -0.2037410000000 -0.1194950000000 -0.1154490000000 1.0   0.19
O      2 -0.4386850000000  0.1194950000000  0.1154490000000 1.0   0.19
O      2  0.4386850000000 -0.1154490000000 -0.1194950000000 1.0   0.19
O      2 -0.1989890000000 -0.2268570000000  0.4212300000000 1.0   0.15
O      2  0.1989890000000 -0.4212300000000  0.2268570000000 1.0   0.15
O      2  0.0046160000000  0.4212300000000 -0.2268570000000 1.0   0.15
O      2 -0.0046160000000  0.2268570000000 -0.4212300000000 1.0   0.15
S      3 -0.4693320000000  0.2706000000000 -0.5328510000000 1.0   0.12
S      3  0.4693320000000  0.5328510000000 -0.2706000000000 1.0   0.12
S      3 -0.2684160000000 -0.5328510000000  0.2706000000000 1.0   0.12
S      3  0.2684160000000 -0.2706000000000  0.5328510000000 1.0   0.12
Fe     4 -0.0453770000000  0.0099130000000 -0.1699530000000 1.0   2.10
Fe     4  0.0453770000000  0.1699530000000 -0.0099130000000 1.0   2.10
Fe     4  0.2054180000000 -0.1699530000000  0.0099130000000 1.0   2.10
Fe     4 -0.2054180000000 -0.0099130000000  0.1699530000000 1.0   2.10
Fe     4  0.1944340000000  0.5000000000000 -0.5000000000000 1.0   3.38
Fe     4 -0.1944340000000 -0.5000000000000  0.5000000000000 1.0   3.38
END
