TITL LFSO-Li3Fe3S4O2-200929-161027-bb2d5a 0.0323 243.665515 -5.28041141E+003 10.1203 10.4818 12 (Fmm2) n - 1
REM
REM Run started: Tue, 29 Sep 2020 19:17:46 +0100 in /lustre/scratch/uccabz1/launch_tmp/launcher_2020-09-29-15-10-25-206379
REM CASTEP 20.1 from code version af48c487+ pr-geom-scf-spinfix Tue Jun 2 15:39:59 2020 +0100
REM Functional Perdew Burke Ernzerhof Relativity Koelling-Harmon Dispersion off
REM Cut-off 340.0000 eV Grid scale 1.7500 Gmax 16.5316 1/A FBSC none
REM MP grid 3 3 3 Offset 0.000 0.000 0.000 No. kpts 8 Spacing 0.07
REM Total runtime: 12808.7 s
REM Overall efficiency: 93.7 %
REM
REM
REM
REM compiler GCC version 4.9.2
REM options -cpp -iprefix /lustre/shared/ucl/apps/gcc/4.9.2/bin/../lib/gcc/x86_64-unknown-linux-gnu/4.9.2/ -mtune=corei7 -march=x86-64 -g -Og
REM COMMAND_LINE
REM seed -96720563 -1803002746 -1006039905 -491363977 -1971972645 -1061488066 446244437 1482576102 163922532 1396819375 -379926472 -896143457
REM
REM S 3|1.8|5|6|7|30:31:32(qc=5)
REM O 2|1.5|12|13|15|20:21(qc=5)
REM Li 1|1.3|8|9|10|10U:20(qc=5)
REM Fe 3|2.2|2.0|1.0|8|9|10|40:41:32(qc=5)
REM 
CELL 1.54180    7.22101    7.22101    8.50455  131.40787  131.40787   56.08499
LATT -1
SFAC Li O  S  Fe 
Li     1 -0.3861220000000 -0.3861220000000 -0.4762360000000 1.0   0.02
Li     1  0.0901140000000  0.0901140000000  0.4762360000000 1.0   0.02
Li     1  0.7265330000000 -0.2734670000000 -0.0000000000000 1.0  -0.05
O      2 -0.1076680000000 -0.1076680000000 -0.6622050000000 1.0   0.39
O      2  0.5545380000000  0.5545380000000  0.6622050000000 1.0   0.39
S      3  0.1126720000000 -0.3840040000000 -0.2576620000000 1.0   0.13
S      3 -0.1263420000000  0.3703340000000  0.2576620000000 1.0   0.13
S      3 -0.3840040000000  0.1126720000000 -0.2576620000000 1.0   0.13
S      3  0.3703340000000 -0.1263420000000  0.2576620000000 1.0   0.13
Fe     4  0.3817550000000  0.3817550000000  0.5862690000000 1.0   3.20
Fe     4 -0.2045140000000 -0.2045140000000 -0.5862690000000 1.0   3.20
Fe     4 -0.5019260000000  0.4980740000000 -0.0000000000000 1.0   2.45
END
