TITL LFSO-Li3Fe3SO5-200926-111110-24ff0a 0.0521 228.867736 -5.68149421E+003 7.01275 7.67894 12 (Cm) n - 1
REM
REM Run started: Sat, 26 Sep 2020 17:38:07 +0100 in /lustre/scratch/uccabz1/launch_tmp/launcher_2020-09-26-10-11-08-533093
REM CASTEP 20.1 from code version af48c487+ pr-geom-scf-spinfix Tue Jun 2 15:39:59 2020 +0100
REM Functional Perdew Burke Ernzerhof Relativity Koelling-Harmon Dispersion off
REM Cut-off 340.0000 eV Grid scale 1.7500 Gmax 16.5316 1/A FBSC none
REM MP grid 4 3 3 Offset 0.000 0.000 0.000 No. kpts 18 Spacing 0.07
REM Total runtime: 23353.2 s
REM Overall efficiency: 97.4 %
REM
REM
REM
REM compiler GCC version 4.9.2
REM options -cpp -iprefix /lustre/shared/ucl/apps/gcc/4.9.2/bin/../lib/gcc/x86_64-unknown-linux-gnu/4.9.2/ -mtune=corei7 -march=x86-64 -g -Og
REM COMMAND_LINE
REM seed 1830308219 -1679514850 -1584806841 -1051074965 -1672950239 1028009512 -1209236521 -1708011627 1857764015 1663211106 1987234044 -7802911
REM
REM S 3|1.8|5|6|7|30:31:32(qc=5)
REM O 2|1.5|12|13|15|20:21(qc=5)
REM Li 1|1.3|8|9|10|10U:20(qc=5)
REM Fe 3|2.2|2.0|1.0|8|9|10|40:41:32(qc=5)
REM 
CELL 1.54180    7.58483    7.58483    7.23207   72.47265  131.02588  131.39774
LATT -1
SFAC Li O  S  Fe 
Li     1 -0.1759720000000  0.2084050000000 -0.4135970000000 1.0   0.02
Li     1  0.3779980000000 -0.2376250000000 -0.4135970000000 1.0   0.02
Li     1  0.5911820000000 -0.1973420000000  0.3938400000000 1.0  -0.04
O      2 -0.2132150000000  0.3847340000000 -0.3167620000000 1.0   0.16
O      2  0.2985030000000 -0.1035470000000 -0.3167620000000 1.0   0.16
O      2 -0.2734140000000  0.1066130000000  0.3090890000000 1.0   0.35
O      2  0.2024750000000  0.5825030000000  0.3090890000000 1.0   0.35
O      2 -0.1875110000000 -0.0641660000000 -0.2516770000000 1.0  -0.05
S      3  0.0330110000000 -0.1293380000000 -0.0963280000000 1.0  -0.09
Fe     4 -0.0838010000000  0.4727920000000 -0.0092920000000 1.0   2.68
Fe     4 -0.4820830000000  0.0745100000000 -0.0092920000000 1.0   2.68
Fe     4  0.0134390000000 -0.3030070000000 -0.2895680000000 1.0   0.78
END
