TITL LFSO-Li2Fe4SO4-200912-020703-47b8a4 0.0217 141.898843 -5.90838420E+003 14.2081 14.4795 11 (Immm) n - 1
REM
REM Run started: Sat, 12 Sep 2020 05:56:04 +0100 in /lustre/scratch/uccabz1/launch_tmp/launcher_2020-09-12-01-07-01-301496
REM CASTEP 20.1 from code version af48c487+ pr-geom-scf-spinfix Tue Jun 2 15:39:59 2020 +0100
REM Functional Perdew Burke Ernzerhof Relativity Koelling-Harmon Dispersion off
REM Cut-off 340.0000 eV Grid scale 1.7500 Gmax 16.5316 1/A FBSC none
REM MP grid 3 4 3 Offset 0.000 0.000 0.000 No. kpts 12 Spacing 0.07
REM Total runtime: 13827.6 s
REM Overall efficiency: 95.5 %
REM
REM
REM
REM compiler GCC version 4.9.2
REM options -cpp -iprefix /lustre/shared/ucl/apps/gcc/4.9.2/bin/../lib/gcc/x86_64-unknown-linux-gnu/4.9.2/ -mtune=corei7 -march=x86-64 -g -Og
REM COMMAND_LINE
REM seed 295615835 -1150904368 2029036875 -1254835897 -1229392091 -265813335 94056231 -684412130 -1179132996 -2106776466 -1064106278 696564797
REM
REM S 3|1.8|5|6|7|30:31:32(qc=5)
REM O 2|1.5|12|13|15|20:21(qc=5)
REM Li 1|1.3|8|9|10|10U:20(qc=5)
REM Fe 3|2.2|2.0|1.0|8|9|10|40:41:32(qc=5)
REM 
CELL 1.54180    6.32379    3.76964    6.99877  105.62305  116.85785   90.00000
LATT -1
SFAC Li O  S  Fe 
Li     1  0.3877410000000  0.4809860000000 -0.2245180000000 1.0  -0.10
Li     1 -0.3877410000000 -0.2944960000000  0.2245180000000 1.0  -0.10
O      2 -0.3923820000000  0.4201370000000 -0.3399310000000 1.0   0.29
O      2  0.3923820000000 -0.2399320000000  0.3399310000000 1.0   0.29
O      2  0.0524510000000  0.4201370000000 -0.3399310000000 1.0   0.29
O      2 -0.0524510000000 -0.2399320000000  0.3399310000000 1.0   0.29
S      3  0.5000000000000  0.0923200000000  0.0000000000000 1.0   0.11
Fe     4  0.0324460000000 -0.0694290000000 -0.3190030000000 1.0   3.28
Fe     4 -0.0324460000000  0.2495730000000  0.3190030000000 1.0   3.28
Fe     4 -0.3514480000000 -0.0694290000000 -0.3190030000000 1.0   3.28
Fe     4  0.3514480000000  0.2495730000000  0.3190030000000 1.0   3.28
END
