TITL LFSO-Li4Fe3S3O2-200926-120013-2e89b5 0.0430 385.693137 -1.03551662E+004 17.9926 18.3765 24 (R3) n - 1
REM
REM Run started: Sat, 26 Sep 2020 15:32:53 +0100 in /lustre/scratch/uccabz1/launch_tmp/launcher_2020-09-26-11-00-11-017904
REM CASTEP 20.1 from code version af48c487+ pr-geom-scf-spinfix Tue Jun 2 15:39:59 2020 +0100
REM Functional Perdew Burke Ernzerhof Relativity Koelling-Harmon Dispersion off
REM Cut-off 340.0000 eV Grid scale 1.7500 Gmax 16.5316 1/A FBSC none
REM MP grid 2 2 2 Offset 0.000 0.000 0.000 No. kpts 2 Spacing 0.07
REM Total runtime: 12919.8 s
REM Overall efficiency: 80.875 %
REM
REM
REM
REM compiler GCC version 4.9.2
REM options -cpp -iprefix /lustre/shared/ucl/apps/gcc/4.9.2/bin/../lib/gcc/x86_64-unknown-linux-gnu/4.9.2/ -mtune=corei7 -march=x86-64 -g -Og
REM COMMAND_LINE
REM seed -1201312227 -585283101 -244279168 -1618354334 2020663892 370031087 -692373756 -2139029563 -760036289 1646851200 -1549240070 -89435864
REM
REM S 3|1.8|5|6|7|30:31:32(qc=5)
REM O 2|1.5|12|13|15|20:21(qc=5)
REM Li 1|1.3|8|9|10|10U:20(qc=5)
REM Fe 3|2.2|2.0|1.0|8|9|10|40:41:32(qc=5)
REM 
CELL 1.54180    7.27921    7.27921    7.27921   90.22910   90.22910   90.22910
LATT -1
SFAC Li O  S  Fe 
Li     1 -0.5132950000000 -0.4388400000000  0.1666900000000 1.0  -0.01
Li     1  0.1666900000000 -0.5132950000000 -0.4388400000000 1.0  -0.01
Li     1 -0.4388400000000  0.1666900000000 -0.5132950000000 1.0  -0.01
Li     1  0.1887970000000  0.2847700000000 -0.1629590000000 1.0  -0.01
Li     1 -0.1629590000000  0.1887970000000  0.2847700000000 1.0  -0.01
Li     1  0.2847700000000 -0.1629590000000  0.1887970000000 1.0  -0.01
Li     1  0.2871820000000  0.2871820000000  0.2871820000000 1.0  -0.04
Li     1  0.4855680000000  0.4855680000000  0.4855680000000 1.0  -0.02
O      2  0.2980580000000  0.2515270000000 -0.4469830000000 1.0   0.30
O      2 -0.4469830000000  0.2980580000000  0.2515270000000 1.0   0.30
O      2  0.2515270000000 -0.4469830000000  0.2980580000000 1.0   0.30
O      2 -0.2227260000000 -0.2227260000000 -0.2227260000000 1.0  -0.02
S      3 -0.0847810000000  0.3845850000000  0.0196810000000 1.0   0.12
S      3  0.0196810000000 -0.0847810000000  0.3845850000000 1.0   0.12
S      3  0.3845850000000  0.0196810000000 -0.0847810000000 1.0   0.12
S      3 -0.1590430000000  0.4209540000000 -0.4668270000000 1.0   0.23
S      3 -0.4668270000000 -0.1590430000000  0.4209540000000 1.0   0.23
S      3  0.4209540000000 -0.4668270000000 -0.1590430000000 1.0   0.23
Fe     4 -0.2744810000000 -0.4659800000000 -0.1847210000000 1.0   1.93
Fe     4 -0.1847210000000 -0.2744810000000 -0.4659800000000 1.0   1.93
Fe     4 -0.4659800000000 -0.1847210000000 -0.2744810000000 1.0   1.93
Fe     4  0.2629310000000  0.0036630000000 -0.4095510000000 1.0   3.46
Fe     4 -0.4095510000000  0.2629310000000  0.0036630000000 1.0   3.46
Fe     4  0.0036630000000 -0.4095510000000  0.2629310000000 1.0   3.46
END
