TITL LFSO-Li4Fe3SO4-200927-182846-86f18b -0.0503 177.160497 -5.44457955E+003 8.23245 8.62960 12 (C2/m) n - 1
REM
REM Run started: Mon, 28 Sep 2020 15:39:32 +0100 in /lustre/scratch/uccabz1/launch_tmp/launcher_2020-09-28-13-17-43-062965
REM CASTEP 20.1 from code version af48c487+ pr-geom-scf-spinfix Tue Jun 2 15:39:59 2020 +0100
REM Functional Perdew Burke Ernzerhof Relativity Koelling-Harmon Dispersion off
REM Cut-off 340.0000 eV Grid scale 1.7500 Gmax 16.5316 1/A FBSC none
REM MP grid 4 3 3 Offset 0.000 0.000 0.000 No. kpts 12 Spacing 0.07
REM Total runtime: 16004.1 s
REM Overall efficiency: 96.5 %
REM
REM
REM
REM compiler GCC version 4.9.2
REM options -cpp -iprefix /lustre/shared/ucl/apps/gcc/4.9.2/bin/../lib/gcc/x86_64-unknown-linux-gnu/4.9.2/ -mtune=corei7 -march=x86-64 -g -Og
REM COMMAND_LINE
REM seed 531851118 2061061329 -1417654344 -1505248085 182320915 -23126127 1096469940 -22794960 1414934327 -492916104 777951759 1980019286
REM
REM S 3|1.8|5|6|7|30:31:32(qc=5)
REM O 2|1.5|12|13|15|20:21(qc=5)
REM Li 1|1.3|8|9|10|10U:20(qc=5)
REM Fe 3|2.2|2.0|1.0|8|9|10|40:41:32(qc=5)
REM 
CELL 1.54180    4.13051    8.80463    8.80463  144.99710   94.55284   94.55284
LATT -1
SFAC Li O  S  Fe 
Li     1  0.2873870000000 -0.0480420000000 -0.6553070000000 1.0  -0.01
Li     1 -0.2873870000000  0.6553070000000  0.0480420000000 1.0  -0.01
Li     1 -0.2873870000000  0.0480420000000  0.6553070000000 1.0  -0.01
Li     1  0.2873870000000 -0.6553070000000 -0.0480420000000 1.0  -0.01
O      2  0.2102850000000 -0.4087500000000 -0.0413360000000 1.0   0.22
O      2 -0.2102850000000  0.0413360000000  0.4087500000000 1.0   0.22
O      2 -0.2102850000000  0.4087500000000  0.0413360000000 1.0   0.22
O      2  0.2102850000000 -0.0413360000000 -0.4087500000000 1.0   0.22
S      3  0.0000000000000 -0.5000000000000 -0.5000000000000 1.0  -0.05
Fe     4  0.0000000000000  0.3713540000000 -0.3713540000000 1.0   2.43
Fe     4  0.0000000000000 -0.3713540000000  0.3713540000000 1.0   2.43
Fe     4  0.5000000000000  0.5000000000000  0.5000000000000 1.0   2.60
END
