TITL LFSO-Li6FeS2O2-200920-193628-c68477 0.0346 319.062382 -7.09103569E+003 8.00000 8.26518 22 (P3) n - 1
REM
REM Run started: Mon, 21 Sep 2020 08:58:44 +0100 in /lustre/scratch/uccabz1/launch_tmp/launcher_2020-09-21-07-51-13-027491
REM CASTEP 20.1 from code version af48c487+ pr-geom-scf-spinfix Tue Jun 2 15:39:59 2020 +0100
REM Functional Perdew Burke Ernzerhof Relativity Koelling-Harmon Dispersion off
REM Cut-off 340.0000 eV Grid scale 1.7500 Gmax 16.5316 1/A FBSC none
REM MP grid 2 3 3 Offset 0.000 0.000 0.000 No. kpts 5 Spacing 0.07
REM Total runtime: 47623.3 s
REM Overall efficiency: 89.5 %
REM
REM
REM
REM compiler GCC version 4.9.2
REM options -cpp -iprefix /lustre/shared/ucl/apps/gcc/4.9.2/bin/../lib/gcc/x86_64-unknown-linux-gnu/4.9.2/ -mtune=corei7 -march=x86-64 -g -Og
REM COMMAND_LINE
REM seed 2039947976 796255632 -202429439 295418789 905870086 -1426417692 -375306185 -1565071360 1486447889 -2011870703 -419380070 188670429
REM
REM S 3|1.8|5|6|7|30:31:32(qc=5)
REM O 2|1.5|12|13|15|20:21(qc=5)
REM Li 1|1.3|8|9|10|10U:20(qc=5)
REM Fe 3|2.2|2.0|1.0|8|9|10|40:41:32(qc=5)
REM 
CELL 1.54180    7.34980    7.08002    7.08002  120.00000   90.00000   90.00000
LATT -1
SFAC Li O  S  Fe 
Li     1  0.3110110000000 -0.0255000000000  0.5803990000000 1.0  -0.04
Li     1  0.3110110000000 -0.5803990000000  0.3941020000000 1.0  -0.04
Li     1  0.3110110000000 -0.3941020000000  0.0255000000000 1.0  -0.04
Li     1 -0.0090290000000 -0.2243500000000 -0.0222370000000 1.0   0.01
Li     1 -0.0090290000000  0.0222370000000 -0.2021120000000 1.0   0.01
Li     1 -0.0090290000000  0.2021120000000  0.2243500000000 1.0   0.01
Li     1  0.5122520000000  0.2518350000000  0.0039190000000 1.0  -0.02
Li     1  0.5122520000000 -0.0039190000000  0.2479170000000 1.0  -0.02
Li     1  0.5122520000000 -0.2479170000000 -0.2518350000000 1.0  -0.02
Li     1 -0.1381600000000  0.0330880000000  0.4501070000000 1.0  -0.07
Li     1 -0.1381600000000 -0.4501070000000 -0.4170190000000 1.0  -0.07
Li     1 -0.1381600000000  0.4170190000000 -0.0330880000000 1.0  -0.07
O      2 -0.4211700000000 -0.5000790000000 -0.5158580000000 1.0   0.23
O      2 -0.4211700000000  0.5158580000000  0.0157800000000 1.0   0.23
O      2 -0.4211700000000 -0.0157800000000  0.5000790000000 1.0   0.23
O      2 -0.1420650000000  0.3333330000000 -0.3333330000000 1.0   0.33
S      3  0.1740450000000  0.3182190000000  0.0287830000000 1.0   0.02
S      3  0.1740450000000 -0.0287830000000  0.2894360000000 1.0   0.02
S      3  0.1740450000000 -0.2894360000000 -0.3182190000000 1.0   0.02
S      3  0.7360410000000 -0.0000000000000  0.0000000000000 1.0  -0.00
Fe     4 -0.3928390000000  0.3333330000000 -0.3333330000000 1.0   3.76
Fe     4 -0.4078450000000 -0.3333340000000  0.3333340000000 1.0   3.48
END
