TITL LFSO-Li4Fe2S4O-200910-172229-def6ef 0.1389 290.094169 -4.17921050E+003 0.332602 0.489340 11 (Pm) n - 1
REM
REM Run started: Thu, 10 Sep 2020 20:16:17 +0100 in /lustre/scratch/uccabz1/launch_tmp/launcher_2020-09-10-16-22-28-033744
REM CASTEP 20.1 from code version af48c487+ pr-geom-scf-spinfix Tue Jun 2 15:39:59 2020 +0100
REM Functional Perdew Burke Ernzerhof Relativity Koelling-Harmon Dispersion off
REM Cut-off 340.0000 eV Grid scale 1.7500 Gmax 16.5316 1/A FBSC none
REM MP grid 5 2 2 Offset 0.000 0.000 0.000 No. kpts 5 Spacing 0.07
REM Total runtime: 11589.8 s
REM Overall efficiency: 87.3846 %
REM
REM
REM
REM compiler GCC version 4.9.2
REM options -cpp -iprefix /lustre/shared/ucl/apps/gcc/4.9.2/bin/../lib/gcc/x86_64-unknown-linux-gnu/4.9.2/ -mtune=corei7 -march=x86-64 -g -Og
REM COMMAND_LINE
REM seed -1330212336 -746917632 -372309956 -821095013 -998825040 1155510666 1041624585 1895398788 1493933966 2097308623 -572711574 203698476
REM
REM S 3|1.8|5|6|7|30:31:32(qc=5)
REM O 2|1.5|12|13|15|20:21(qc=5)
REM Li 1|1.3|8|9|10|10U:20(qc=5)
REM Fe 3|2.2|2.0|1.0|8|9|10|40:41:32(qc=5)
REM 
CELL 1.54180    3.07309    9.87213    9.60882   90.00000   90.00000   84.34794
LATT -1
SFAC Li O  S  Fe 
Li     1 -0.2826980000000 -0.3136950000000  0.3824280000000 1.0   0.00
Li     1 -0.2826980000000 -0.3136950000000 -0.3824280000000 1.0   0.00
Li     1  0.2809210000000  0.4761950000000  0.3625860000000 1.0  -0.00
Li     1  0.2809210000000  0.4761950000000 -0.3625860000000 1.0  -0.00
O      2  0.2349270000000  0.6264450000000 -0.5000000000000 1.0  -0.00
S      3  0.2299290000000 -0.3343680000000  0.1483440000000 1.0  -0.03
S      3  0.2299290000000 -0.3343680000000 -0.1483440000000 1.0  -0.03
S      3 -0.1742740000000  0.3398310000000 -0.2302330000000 1.0   0.03
S      3 -0.1742740000000  0.3398310000000  0.2302330000000 1.0   0.03
Fe     4 -0.2229190000000 -0.4786850000000 -0.1076800000000 1.0   0.17
Fe     4 -0.2229190000000 -0.4786850000000  0.1076800000000 1.0   0.17
END
