TITL LFSO-Li4Fe2SO4-200910-151854-3a2523 0.0325 130.014430 -4.58011895E+003 8.48497 8.58282 11 (P2) n - 1
REM
REM Run started: Thu, 10 Sep 2020 18:41:28 +0100 in /lustre/scratch/uccabz1/launch_tmp/launcher_2020-09-10-14-18-53-206812
REM CASTEP 20.1 from code version af48c487+ pr-geom-scf-spinfix Tue Jun 2 15:39:59 2020 +0100
REM Functional Perdew Burke Ernzerhof Relativity Koelling-Harmon Dispersion off
REM Cut-off 340.0000 eV Grid scale 1.7500 Gmax 16.5316 1/A FBSC none
REM MP grid 5 6 1 Offset 0.000 0.000 0.000 No. kpts 9 Spacing 0.07
REM Total runtime: 12267 s
REM Overall efficiency: 93.9167 %
REM
REM
REM
REM compiler GCC version 4.9.2
REM options -cpp -iprefix /lustre/shared/ucl/apps/gcc/4.9.2/bin/../lib/gcc/x86_64-unknown-linux-gnu/4.9.2/ -mtune=corei7 -march=x86-64 -g -Og
REM COMMAND_LINE
REM seed -918775739 -115258581 -359640628 574827669 -183919192 1656843590 -561567876 -2074252094 -1779281040 -338605138 1992131421 -386558448
REM
REM S 3|1.8|5|6|7|30:31:32(qc=5)
REM O 2|1.5|12|13|15|20:21(qc=5)
REM Li 1|1.3|8|9|10|10U:20(qc=5)
REM Fe 3|2.2|2.0|1.0|8|9|10|40:41:32(qc=5)
REM 
CELL 1.54180    2.90887    2.67818   16.82024   97.16527   90.00000   90.00000
LATT -1
SFAC Li O  S  Fe 
Li     1 -0.2753950000000  0.1562830000000  0.0974470000000 1.0  -0.03
Li     1 -0.2753950000000 -0.1562830000000 -0.0974470000000 1.0  -0.03
Li     1  0.3355510000000  0.2286210000000  0.2074990000000 1.0  -0.02
Li     1  0.3355510000000 -0.2286210000000 -0.2074990000000 1.0  -0.02
O      2  0.4611520000000  0.2879850000000  0.3241670000000 1.0   0.31
O      2  0.4611520000000 -0.2879850000000 -0.3241670000000 1.0   0.31
O      2  0.2223760000000  0.3282230000000 -0.1312220000000 1.0   0.34
O      2  0.2223760000000 -0.3282230000000  0.1312220000000 1.0   0.34
S      3 -0.0018260000000 -0.0000000000000 -0.5000000000000 1.0   0.27
Fe     4 -0.0398080000000 -0.1876870000000  0.3623720000000 1.0   3.51
Fe     4 -0.0398080000000  0.1876870000000 -0.3623720000000 1.0   3.51
END
