TITL LFSO-Li5FeSO3-200910-043529-d60ffd 0.0238 246.481839 -6.96178390E+003 9.98077 10.0502 20 (R3m) n - 1
REM
REM Run started: Thu, 10 Sep 2020 11:59:02 +0100 in /lustre/scratch/uccabz1/launch_tmp/launcher_2020-09-10-03-35-27-731043
REM CASTEP 20.1 from code version af48c487+ pr-geom-scf-spinfix Tue Jun 2 15:39:59 2020 +0100
REM Functional Perdew Burke Ernzerhof Relativity Koelling-Harmon Dispersion off
REM Cut-off 340.0000 eV Grid scale 1.7500 Gmax 16.5316 1/A FBSC none
REM MP grid 3 3 2 Offset 0.000 0.000 0.000 No. kpts 7 Spacing 0.07
REM Total runtime: 29156.2 s
REM Overall efficiency: 80.6923 %
REM
REM
REM
REM compiler GCC version 4.9.2
REM options -cpp -iprefix /lustre/shared/ucl/apps/gcc/4.9.2/bin/../lib/gcc/x86_64-unknown-linux-gnu/4.9.2/ -mtune=corei7 -march=x86-64 -g -Og
REM COMMAND_LINE
REM seed 541100161 1730235286 495648528 -1713795855 -1166190709 1392477073 -1956448189 1813776380 2146108300 -2103694473 44875685 1690347533
REM
REM S 3|1.8|5|6|7|30:31:32(qc=5)
REM O 2|1.5|12|13|15|20:21(qc=5)
REM Li 1|1.3|8|9|10|10U:20(qc=5)
REM Fe 3|2.2|2.0|1.0|8|9|10|40:41:32(qc=5)
REM 
CELL 1.54180    6.00323    6.00323    8.62450   69.63291   69.63291   60.00000
LATT -1
SFAC Li O  S  Fe 
Li     1 -0.3471900000000 -0.3471830000000 -0.5034100000000 1.0  -0.02
Li     1  0.1977820000000 -0.3471900000000 -0.5034100000000 1.0  -0.02
Li     1 -0.3471830000000  0.1977820000000 -0.5034100000000 1.0  -0.02
Li     1  0.1082140000000 -0.3020010000000  0.0862430000000 1.0   0.01
Li     1  0.1075450000000  0.1082140000000  0.0862430000000 1.0   0.01
Li     1 -0.3020010000000  0.1075450000000  0.0862430000000 1.0   0.01
Li     1  0.0624500000000 -0.4343470000000 -0.1937020000000 1.0  -0.00
Li     1 -0.4344010000000  0.0624500000000 -0.1937020000000 1.0  -0.00
Li     1 -0.4343470000000 -0.4344010000000 -0.1937020000000 1.0  -0.00
Li     1 -0.3436450000000 -0.3436450000000  0.0309360000000 1.0   0.06
O      2 -0.1400460000000 -0.1401460000000 -0.0709820000000 1.0   0.27
O      2  0.3511740000000 -0.1400460000000 -0.0709820000000 1.0   0.27
O      2 -0.1401460000000  0.3511740000000 -0.0709820000000 1.0   0.27
O      2  0.2909890000000  0.2909670000000 -0.3880480000000 1.0   0.34
O      2 -0.1939080000000  0.2909890000000 -0.3880480000000 1.0   0.34
O      2  0.2909670000000 -0.1939080000000 -0.3880480000000 1.0   0.34
S      3 -0.1103310000000 -0.1103310000000  0.3309940000000 1.0   0.04
S      3  0.2656100000000  0.2656100000000  0.2031690000000 1.0   0.23
Fe     4  0.1712220000000  0.1712220000000  0.4863340000000 1.0   3.86
Fe     4  0.0636630000000  0.0636630000000 -0.1909900000000 1.0   3.96
END
