TITL LFSO-Li5FeS3O-200910-105014-1efa76 0.0342 395.901376 -6.42609802E+003 6.00045 6.60406 20 (P21) n - 1
REM
REM Run started: Thu, 10 Sep 2020 20:38:03 +0100 in /lustre/scratch/uccabz1/launch_tmp/launcher_2020-09-10-09-50-12-652279
REM CASTEP 20.1 from code version af48c487+ pr-geom-scf-spinfix Tue Jun 2 15:39:59 2020 +0100
REM Functional Perdew Burke Ernzerhof Relativity Koelling-Harmon Dispersion off
REM Cut-off 340.0000 eV Grid scale 1.7500 Gmax 16.5316 1/A FBSC none
REM MP grid 4 3 2 Offset 0.000 0.000 0.000 No. kpts 6 Spacing 0.07
REM Total runtime: 40537.8 s
REM Overall efficiency: 97.75 %
REM
REM
REM
REM compiler GCC version 4.9.2
REM options -cpp -iprefix /lustre/shared/ucl/apps/gcc/4.9.2/bin/../lib/gcc/x86_64-unknown-linux-gnu/4.9.2/ -mtune=corei7 -march=x86-64 -g -Og
REM COMMAND_LINE
REM seed 1914495783 1463562211 -1060150659 -2113042375 -849314426 -706001095 2026064774 1368647573 -689026712 1994186163 295437229 754220610
REM
REM S 3|1.8|5|6|7|30:31:32(qc=5)
REM O 2|1.5|12|13|15|20:21(qc=5)
REM Li 1|1.3|8|9|10|10U:20(qc=5)
REM Fe 3|2.2|2.0|1.0|8|9|10|40:41:32(qc=5)
REM 
CELL 1.54180    4.41684    5.40921   17.49204  108.67865   90.00000   90.00000
LATT -1
SFAC Li O  S  Fe 
Li     1  0.0713480000000 -0.5029450000000 -0.0609250000000 1.0   0.01
Li     1 -0.4286520000000  0.5029450000000  0.0609250000000 1.0   0.01
Li     1 -0.4378160000000  0.0076380000000 -0.4466000000000 1.0  -0.00
Li     1  0.0621840000000 -0.0076380000000  0.4466000000000 1.0  -0.00
Li     1 -0.3511270000000 -0.2070770000000  0.2675070000000 1.0  -0.03
Li     1  0.1488730000000  0.2070770000000 -0.2675070000000 1.0  -0.03
Li     1  0.2914590000000 -0.0345540000000  0.1134020000000 1.0  -0.02
Li     1 -0.2085410000000  0.0345540000000 -0.1134020000000 1.0  -0.02
Li     1  0.0189860000000 -0.3662480000000 -0.3518060000000 1.0   0.03
Li     1  0.5189860000000  0.3662480000000  0.3518060000000 1.0   0.03
O      2  0.4198210000000 -0.2693750000000  0.1615950000000 1.0   0.22
O      2 -0.0801790000000  0.2693750000000 -0.1615950000000 1.0   0.22
S      3  0.5060940000000 -0.4260920000000 -0.2704290000000 1.0   0.10
S      3  0.0060940000000  0.4260920000000  0.2704290000000 1.0   0.10
S      3  0.0736230000000  0.2595860000000  0.0412440000000 1.0   0.12
S      3  0.5736230000000 -0.2595860000000 -0.0412440000000 1.0   0.12
S      3 -0.4395490000000  0.0232610000000  0.4063250000000 1.0  -0.01
S      3  0.0604510000000 -0.0232610000000 -0.4063250000000 1.0  -0.01
Fe     4  0.1561820000000  0.4939380000000  0.1649960000000 1.0   2.58
Fe     4 -0.3438180000000 -0.4939380000000 -0.1649960000000 1.0   2.58
END
