TITL LFSO-Li4Fe2S3O-200911-011058-9d6a4d 0.0597 347.460751 -7.75221408E+003 -15.9866 16.1200 20 (R3) n - 1
REM
REM Run started: Fri, 11 Sep 2020 14:14:20 +0100 in /lustre/scratch/uccabz1/launch_tmp/launcher_2020-09-11-00-10-56-748600
REM CASTEP 20.1 from code version af48c487+ pr-geom-scf-spinfix Tue Jun 2 15:39:59 2020 +0100
REM Functional Perdew Burke Ernzerhof Relativity Koelling-Harmon Dispersion off
REM Cut-off 340.0000 eV Grid scale 1.7500 Gmax 16.5316 1/A FBSC none
REM MP grid 3 3 3 Offset 0.000 0.000 0.000 No. kpts 6 Spacing 0.07
REM Total runtime: 47911.3 s
REM Overall efficiency: 97.8889 %
REM
REM
REM
REM compiler GCC version 4.9.2
REM options -cpp -iprefix /lustre/shared/ucl/apps/gcc/4.9.2/bin/../lib/gcc/x86_64-unknown-linux-gnu/4.9.2/ -mtune=corei7 -march=x86-64 -g -Og
REM COMMAND_LINE
REM seed 516428910 -46716834 -1721516615 1283445542 -1448722081 902839550 389422508 1404844315 1549700130 1831002834 807620166 1698944883
REM
REM S 3|1.8|5|6|7|30:31:32(qc=5)
REM O 2|1.5|12|13|15|20:21(qc=5)
REM Li 1|1.3|8|9|10|10U:20(qc=5)
REM Fe 3|2.2|2.0|1.0|8|9|10|40:41:32(qc=5)
REM 
CELL 1.54180    7.03152    7.03152    7.03152   88.88950   88.88950   88.88950
LATT -1
SFAC Li O  S  Fe 
Li     1 -0.1146450000000  0.0348050000000 -0.3649570000000 1.0   0.00
Li     1 -0.3649570000000 -0.1146450000000  0.0348050000000 1.0   0.00
Li     1  0.0348050000000 -0.3649570000000 -0.1146450000000 1.0   0.00
Li     1 -0.0117570000000 -0.1342180000000  0.1630720000000 1.0  -0.01
Li     1  0.1630720000000 -0.0117570000000 -0.1342180000000 1.0  -0.01
Li     1 -0.1342180000000  0.1630720000000 -0.0117570000000 1.0  -0.01
Li     1 -0.2710890000000 -0.2710890000000 -0.2710890000000 1.0   0.16
Li     1  0.4620860000000  0.4620860000000  0.4620860000000 1.0   0.08
O      2  0.0962490000000  0.0962490000000  0.0962490000000 1.0  -0.38
O      2 -0.1224420000000 -0.1224420000000 -0.1224420000000 1.0  -0.02
S      3 -0.2933210000000 -0.2105330000000  0.3772230000000 1.0  -0.20
S      3  0.3772230000000 -0.2933210000000 -0.2105330000000 1.0  -0.20
S      3 -0.2105330000000  0.3772230000000 -0.2933210000000 1.0  -0.20
S      3 -0.4334510000000  0.2447780000000  0.1573910000000 1.0  -0.28
S      3  0.1573910000000 -0.4334510000000  0.2447780000000 1.0  -0.28
S      3  0.2447780000000  0.1573910000000 -0.4334510000000 1.0  -0.28
Fe     4  0.5181350000000  0.4336520000000 -0.0995910000000 1.0  -3.56
Fe     4 -0.0995910000000  0.5181350000000  0.4336520000000 1.0  -3.56
Fe     4  0.4336520000000 -0.0995910000000  0.5181350000000 1.0  -3.56
Fe     4  0.2396990000000  0.2396990000000  0.2396990000000 1.0  -3.66
END
