TITL LFSO-Li4Fe2S4O-200910-201439-5102dc -0.0340 250.941075 -4.17874470E+003 7.10699 7.30647 11 (Fmmm) n - 1
REM
REM Run started: Fri, 11 Sep 2020 01:03:47 +0100 in /lustre/scratch/uccabz1/launch_tmp/launcher_2020-09-10-19-14-38-263236
REM CASTEP 20.1 from code version af48c487+ pr-geom-scf-spinfix Tue Jun 2 15:39:59 2020 +0100
REM Functional Perdew Burke Ernzerhof Relativity Koelling-Harmon Dispersion off
REM Cut-off 340.0000 eV Grid scale 1.7500 Gmax 16.5316 1/A FBSC none
REM MP grid 3 4 2 Offset 0.000 0.000 0.000 No. kpts 10 Spacing 0.07
REM Total runtime: 20084.4 s
REM Overall efficiency: 81.4 %
REM
REM
REM
REM compiler GCC version 4.9.2
REM options -cpp -iprefix /lustre/shared/ucl/apps/gcc/4.9.2/bin/../lib/gcc/x86_64-unknown-linux-gnu/4.9.2/ -mtune=corei7 -march=x86-64 -g -Og
REM COMMAND_LINE
REM seed 1193312809 1405961913 1230216594 -841650280 78780003 2069381335 1778331395 -1040804048 1308418212 -86272598 -1077478224 -620489313
REM
REM S 3|1.8|5|6|7|30:31:32(qc=5)
REM O 2|1.5|12|13|15|20:21(qc=5)
REM Li 1|1.3|8|9|10|10U:20(qc=5)
REM Fe 3|2.2|2.0|1.0|8|9|10|40:41:32(qc=5)
REM 
CELL 1.54180    6.55899    5.14534   10.19179   78.16513   71.22953   50.40396
LATT -1
SFAC Li O  S  Fe 
Li     1  0.1248770000000  0.0000000000000  0.1991310000000 1.0   0.00
Li     1 -0.1248770000000  0.0000000000000 -0.1991310000000 1.0   0.00
Li     1  0.3240080000000  0.0000000000000 -0.1991310000000 1.0   0.00
Li     1 -0.3240080000000 -0.0000000000000  0.1991310000000 1.0   0.00
O      2  0.0000000000000  0.0000000000000  0.0000000000000 1.0   0.28
S      3 -0.3846740000000 -0.4514360000000  0.2207840000000 1.0   0.18
S      3 -0.1638900000000 -0.4514360000000 -0.2207840000000 1.0   0.18
S      3 -0.6153260000000  0.4514360000000 -0.2207840000000 1.0   0.18
S      3  0.1638900000000  0.4514360000000  0.2207840000000 1.0   0.18
Fe     4 -0.2273670000000  0.4547330000000  0.0000000000000 1.0   3.04
Fe     4  0.2273670000000 -0.4547330000000  0.0000000000000 1.0   3.04
END
