TITL LFSO-Li4Fe2S3O-200911-022910-8134f2 0.0769 316.211148 -7.75180998E+003 15.9126 16.0888 20 (I41) n - 1
REM
REM Run started: Fri, 11 Sep 2020 11:29:37 +0100 in /lustre/scratch/uccabz1/launch_tmp/launcher_2020-09-11-01-29-08-706029
REM CASTEP 20.1 from code version af48c487+ pr-geom-scf-spinfix Tue Jun 2 15:39:59 2020 +0100
REM Functional Perdew Burke Ernzerhof Relativity Koelling-Harmon Dispersion off
REM Cut-off 340.0000 eV Grid scale 1.7500 Gmax 16.5316 1/A FBSC none
REM MP grid 3 3 3 Offset 0.000 0.000 0.000 No. kpts 6 Spacing 0.07
REM Total runtime: 32572.5 s
REM Overall efficiency: 97.6667 %
REM
REM
REM
REM compiler GCC version 4.9.2
REM options -cpp -iprefix /lustre/shared/ucl/apps/gcc/4.9.2/bin/../lib/gcc/x86_64-unknown-linux-gnu/4.9.2/ -mtune=corei7 -march=x86-64 -g -Og
REM COMMAND_LINE
REM seed 2029699101 1219372314 -951184310 641498033 -1495909984 1260246611 -1718669838 -69879622 163163660 1765879201 -1358140767 489283503
REM
REM S 3|1.8|5|6|7|30:31:32(qc=5)
REM O 2|1.5|12|13|15|20:21(qc=5)
REM Li 1|1.3|8|9|10|10U:20(qc=5)
REM Fe 3|2.2|2.0|1.0|8|9|10|40:41:32(qc=5)
REM 
CELL 1.54180    7.09176    7.09176    8.04224  116.16179  116.16179   90.00000
LATT -1
SFAC Li O  S  Fe 
Li     1 -0.1288670000000  0.0556080000000 -0.2807640000000 1.0   0.02
Li     1 -0.1518960000000 -0.3363720000000 -0.2807640000000 1.0   0.02
Li     1 -0.1943920000000  0.0981040000000  0.2192360000000 1.0   0.02
Li     1 -0.5863720000000  0.1211330000000  0.2192360000000 1.0   0.02
Li     1 -0.0281810000000 -0.2520090000000  0.2116180000000 1.0  -0.06
Li     1  0.2398000000000  0.4636270000000  0.2116180000000 1.0  -0.06
Li     1 -0.5020090000000  0.4898000000000 -0.2883820000000 1.0  -0.06
Li     1  0.2136270000000  0.2218190000000 -0.2883820000000 1.0  -0.06
O      2  0.2006960000000 -0.2993040000000  0.4013920000000 1.0   0.33
O      2  0.4506960000000  0.4506960000000 -0.0986080000000 1.0   0.33
S      3  0.1710690000000 -0.1226120000000 -0.1745200000000 1.0   0.26
S      3 -0.3455880000000 -0.0519080000000 -0.1745200000000 1.0   0.26
S      3 -0.3726120000000 -0.0955880000000  0.3254800000000 1.0   0.26
S      3 -0.3019080000000  0.4210690000000  0.3254800000000 1.0   0.26
S      3 -0.0537700000000  0.4462300000000 -0.1075410000000 1.0   0.14
S      3  0.1962300000000  0.1962300000000  0.3924590000000 1.0   0.14
Fe     4  0.3123430000000 -0.3267790000000 -0.0073690000000 1.0   3.52
Fe     4 -0.3197120000000  0.3194100000000 -0.0073690000000 1.0   3.52
Fe     4  0.4232210000000 -0.0697120000000  0.4926310000000 1.0   3.52
Fe     4  0.0694100000000  0.5623430000000  0.4926310000000 1.0   3.52
END
