TITL LFSO-Li2Fe2SO2-200913-002442-9b9d08 0.0163 96.451690 -3.30581107E+003 0.246723E-03 0.107939E-01 7 (R3m) n - 1
REM
REM Run started: Sun, 13 Sep 2020 02:53:25 +0100 in /lustre/scratch/uccabz1/launch_tmp/launcher_2020-09-12-23-24-40-940331
REM CASTEP 20.1 from code version af48c487+ pr-geom-scf-spinfix Tue Jun 2 15:39:59 2020 +0100
REM Functional Perdew Burke Ernzerhof Relativity Koelling-Harmon Dispersion off
REM Cut-off 340.0000 eV Grid scale 1.7500 Gmax 16.5316 1/A FBSC none
REM MP grid 5 5 2 Offset 0.000 0.000 0.000 No. kpts 15 Spacing 0.07
REM Total runtime: 9352.09 s
REM Overall efficiency: 94.4167 %
REM
REM
REM
REM compiler GCC version 4.9.2
REM options -cpp -iprefix /lustre/shared/ucl/apps/gcc/4.9.2/bin/../lib/gcc/x86_64-unknown-linux-gnu/4.9.2/ -mtune=corei7 -march=x86-64 -g -Og
REM COMMAND_LINE
REM seed -1835789593 -276858555 46981054 -1951234337 -1621831994 1347164531 1659243870 -196162787 1367598041 218495000 1829067010 468299692
REM
REM S 3|1.8|5|6|7|30:31:32(qc=5)
REM O 2|1.5|12|13|15|20:21(qc=5)
REM Li 1|1.3|8|9|10|10U:20(qc=5)
REM Fe 3|2.2|2.0|1.0|8|9|10|40:41:32(qc=5)
REM 
CELL 1.54180    3.30056    3.30056   10.39968   80.86940   80.86940   60.00000
LATT -1
SFAC Li O  S  Fe 
Li     1  0.4162580000000  0.4162580000000 -0.2487750000000 1.0
Li     1  0.2788800000000  0.2788800000000  0.1633590000000 1.0
O      2 -0.0656840000000 -0.0656840000000  0.1970530000000 1.0
O      2 -0.2321840000000 -0.2321840000000 -0.3034490000000 1.0
S      3 -0.4878320000000 -0.4878320000000  0.4634950000000 1.0
Fe     4  0.1450890000000  0.1450890000000 -0.4352680000000 1.0
Fe     4 -0.1239340000000 -0.1239340000000  0.3718030000000 1.0
END
