TITL LFSO-Li5FeS3O-200910-092300-997b4f -0.2114 325.927227 -6.42579979E+003 7.13075 7.45901 20 (Fdd2) n - 1
REM
REM Run started: Fri, 11 Sep 2020 01:48:50 +0100 in /lustre/scratch/uccabz1/launch_tmp/launcher_2020-09-10-08-22-58-104464
REM CASTEP 20.1 from code version af48c487+ pr-geom-scf-spinfix Tue Jun 2 15:39:59 2020 +0100
REM Functional Perdew Burke Ernzerhof Relativity Koelling-Harmon Dispersion off
REM Cut-off 340.0000 eV Grid scale 1.7500 Gmax 16.5316 1/A FBSC none
REM MP grid 4 4 3 Offset 0.000 0.000 0.000 No. kpts 16 Spacing 0.07
REM Total runtime: 78145.7 s
REM Overall efficiency: 98.5833 %
REM
REM
REM
REM compiler GCC version 4.9.2
REM options -cpp -iprefix /lustre/shared/ucl/apps/gcc/4.9.2/bin/../lib/gcc/x86_64-unknown-linux-gnu/4.9.2/ -mtune=corei7 -march=x86-64 -g -Og
REM COMMAND_LINE
REM seed 1937123364 1720388160 -88037032 -1954550263 -2018464354 -405408644 762227010 1298855267 280917198 -1487087751 1527987670 -53332995
REM
REM S 3|1.8|5|6|7|30:31:32(qc=5)
REM O 2|1.5|12|13|15|20:21(qc=5)
REM Li 1|1.3|8|9|10|10U:20(qc=5)
REM Fe 3|2.2|2.0|1.0|8|9|10|40:41:32(qc=5)
REM 
CELL 1.54180   12.83512   12.83512    6.03848   93.96301   93.96301  159.22329
LATT -1
SFAC Li O  S  Fe 
Li     1 -0.0466380000000  0.1377330000000 -0.2816270000000 1.0   0.01
Li     1 -0.2349890000000 -0.4193590000000 -0.2816270000000 1.0   0.01
Li     1  0.3306410000000  0.0150110000000  0.2183730000000 1.0   0.01
Li     1 -0.1122670000000  0.2033620000000  0.2183730000000 1.0   0.01
Li     1  0.5840740000000  0.6874050000000  0.2795700000000 1.0  -0.00
Li     1 -0.3045040000000 -0.4078350000000  0.2795700000000 1.0  -0.00
Li     1 -0.6578350000000 -0.0545040000000 -0.2204300000000 1.0  -0.00
Li     1  0.4374050000000  0.8340740000000 -0.2204300000000 1.0  -0.00
Li     1  0.0527790000000  0.0527790000000  0.1055570000000 1.0   0.00
Li     1 -0.1972210000000  0.3027790000000  0.6055570000000 1.0   0.00
O      2  0.2651750000000 -0.2348250000000 -0.4696500000000 1.0   0.27
O      2 -0.4848250000000 -0.4848250000000  0.0303500000000 1.0   0.27
S      3  0.0264480000000  0.3785060000000 -0.0994350000000 1.0   0.09
S      3 -0.1258830000000 -0.4779410000000 -0.0994350000000 1.0   0.09
S      3 -0.7279410000000 -0.8758830000000 -0.5994350000000 1.0   0.09
S      3  0.1285060000000  0.2764480000000 -0.5994350000000 1.0   0.09
S      3 -0.4145370000000  0.0854630000000  0.1709250000000 1.0   0.02
S      3 -0.1645370000000 -0.1645370000000 -0.3290750000000 1.0   0.02
Fe     4  0.1025230000000 -0.3974770000000  0.2050470000000 1.0   3.08
Fe     4  0.3525230000000  0.3525230000000 -0.2949530000000 1.0   3.08
END
