TITL LFSO-Li4Fe2S3O2-200911-053743-77c7b3 0.4216 196.474734 -4.30790200E+003 2.72390 3.07865 11 (P2) n - 1
REM
REM Run started: Fri, 11 Sep 2020 11:19:13 +0100 in /lustre/scratch/uccabz1/launch_tmp/launcher_2020-09-11-04-37-41-797924
REM CASTEP 20.1 from code version af48c487+ pr-geom-scf-spinfix Tue Jun 2 15:39:59 2020 +0100
REM Functional Perdew Burke Ernzerhof Relativity Koelling-Harmon Dispersion off
REM Cut-off 340.0000 eV Grid scale 1.7500 Gmax 16.5316 1/A FBSC none
REM MP grid 5 4 2 Offset 0.000 0.000 0.000 No. kpts 10 Spacing 0.07
REM Total runtime: 22082.3 s
REM Overall efficiency: 85 %
REM
REM
REM
REM compiler GCC version 4.9.2
REM options -cpp -iprefix /lustre/shared/ucl/apps/gcc/4.9.2/bin/../lib/gcc/x86_64-unknown-linux-gnu/4.9.2/ -mtune=corei7 -march=x86-64 -g -Og
REM COMMAND_LINE
REM seed 1270100938 1864037431 -1604671238 -2111324255 -393672441 1939742615 2042536304 2144971241 1229555479 -1180221249 126595134 -266222432
REM
REM S 3|1.8|5|6|7|30:31:32(qc=5)
REM O 2|1.5|12|13|15|20:21(qc=5)
REM Li 1|1.3|8|9|10|10U:20(qc=5)
REM Fe 3|2.2|2.0|1.0|8|9|10|40:41:32(qc=5)
REM 
CELL 1.54180    3.95437    4.09075   13.03755   90.00000   90.00000  111.31440
LATT -1
SFAC Li O  S  Fe 
Li     1  0.1653430000000 -0.1679540000000  0.3149370000000 1.0  -0.08
Li     1 -0.1653430000000  0.1679540000000  0.3149370000000 1.0  -0.08
Li     1 -0.2206940000000  0.2337850000000  0.6173580000000 1.0   0.00
Li     1  0.2206940000000 -0.2337850000000  0.6173580000000 1.0   0.00
O      2 -0.3294180000000 -0.3287790000000 -0.3866440000000 1.0  -0.00
O      2  0.3294180000000  0.3287790000000 -0.3866440000000 1.0  -0.00
S      3 -0.2995440000000  0.2477160000000 -0.0056790000000 1.0  -0.02
S      3  0.2995440000000 -0.2477160000000 -0.0056790000000 1.0  -0.02
S      3  0.5000000000000  0.5000000000000 -0.6832180000000 1.0   0.01
Fe     4  0.3265860000000 -0.3495460000000  0.1517610000000 1.0   1.45
Fe     4 -0.3265860000000  0.3495460000000  0.1517610000000 1.0   1.45
END
