TITL LFSO-Li6FeS3O-200910-020719-8a5b93 -0.2747 410.265500 -3.41222432E+003 4.00000 4.08861 11 (Pm) n - 1
REM
REM Run started: Thu, 10 Sep 2020 05:48:37 +0100 in /lustre/scratch/uccabz1/launch_tmp/launcher_2020-09-10-01-07-17-512146
REM CASTEP 20.1 from code version af48c487+ pr-geom-scf-spinfix Tue Jun 2 15:39:59 2020 +0100
REM Functional Perdew Burke Ernzerhof Relativity Koelling-Harmon Dispersion off
REM Cut-off 340.0000 eV Grid scale 1.7500 Gmax 16.5316 1/A FBSC none
REM MP grid 3 4 1 Offset 0.000 0.000 0.000 No. kpts 6 Spacing 0.07
REM Total runtime: 16127.1 s
REM Overall efficiency: 91 %
REM
REM
REM
REM compiler GCC version 4.9.2
REM options -cpp -iprefix /lustre/shared/ucl/apps/gcc/4.9.2/bin/../lib/gcc/x86_64-unknown-linux-gnu/4.9.2/ -mtune=corei7 -march=x86-64 -g -Og
REM COMMAND_LINE
REM seed -745361152 -1755253953 -20865882 -700209006 301668355 -284771408 -2023374880 682805900 -1117206060 448379069 1430299943 -1558747476
REM
REM S 3|1.8|5|6|7|30:31:32(qc=5)
REM O 2|1.5|12|13|15|20:21(qc=5)
REM Li 1|1.3|8|9|10|10U:20(qc=5)
REM Fe 3|2.2|2.0|1.0|8|9|10|40:41:32(qc=5)
REM 
CELL 1.54180    6.11300    5.27573   14.09330   90.00000   90.00000  115.49248
LATT -1
SFAC Li O  S  Fe 
Li     1  0.0891600000000 -0.2217290000000 -0.4164500000000 1.0  -0.01
Li     1  0.0891600000000 -0.2217290000000  0.4164500000000 1.0  -0.01
Li     1 -0.2234160000000  0.2291040000000  0.3485860000000 1.0   0.01
Li     1 -0.2234160000000  0.2291040000000 -0.3485860000000 1.0   0.01
Li     1  0.3734550000000  0.3410750000000 -0.4157140000000 1.0   0.01
Li     1  0.3734550000000  0.3410750000000  0.4157140000000 1.0   0.01
O      2  0.3702780000000  0.0368810000000 -0.5000000000000 1.0   0.19
S      3 -0.2953290000000 -0.2693080000000 -0.3552540000000 1.0   0.10
S      3 -0.2953290000000 -0.2693080000000  0.3552540000000 1.0   0.10
S      3  0.0096600000000  0.3468010000000 -0.5000000000000 1.0   0.09
Fe     4 -0.3836130000000 -0.0905390000000 -0.5000000000000 1.0   3.50
END
