TITL LFSO-Li2Fe4S4O-200911-201944-5b7ddc 0.9753 357.461005 -1.10073187E+004 -9.35860 15.6611 22 (R3) n - 1
REM
REM Run started: Mon, 14 Sep 2020 13:10:28 +0100 in /lustre/scratch/uccabz1/launch_tmp/launcher_2020-09-14-11-22-21-996628
REM CASTEP 20.1 from code version af48c487+ pr-geom-scf-spinfix Tue Jun 2 15:39:59 2020 +0100
REM Functional Perdew Burke Ernzerhof Relativity Koelling-Harmon Dispersion off
REM Cut-off 340.0000 eV Grid scale 1.7500 Gmax 16.5316 1/A FBSC none
REM MP grid 3 3 2 Offset 0.000 0.000 0.000 No. kpts 7 Spacing 0.07
REM Total runtime: 105950 s
REM Overall efficiency: 74.6923 %
REM
REM
REM
REM compiler GCC version 4.9.2
REM options -cpp -iprefix /lustre/shared/ucl/apps/gcc/4.9.2/bin/../lib/gcc/x86_64-unknown-linux-gnu/4.9.2/ -mtune=corei7 -march=x86-64 -g -Og
REM COMMAND_LINE
REM seed -1734016933 932400834 -250027151 -1949579913 -1749525001 494915052 1672104890 1363685984 699489156 1328897229 1079100662 -337072120
REM
REM S 3|1.8|5|6|7|30:31:32(qc=5)
REM O 2|1.5|12|13|15|20:21(qc=5)
REM Li 1|1.3|8|9|10|10U:20(qc=5)
REM Fe 3|2.2|2.0|1.0|8|9|10|40:41:32(qc=5)
REM 
CELL 1.54180    6.85699    6.85699    9.63010   69.14412   69.14412   60.00000
LATT -1
SFAC Li O  S  Fe 
Li     1 -0.4270860000000 -0.1755300000000  0.2188500000000 1.0  -0.00
Li     1 -0.1755300000000  0.3837640000000  0.2188500000000 1.0  -0.00
Li     1  0.3837640000000 -0.4270860000000  0.2188500000000 1.0  -0.00
Li     1 -0.2222440000000 -0.2222440000000 -0.3332710000000 1.0  -0.05
O      2  0.4332410000000  0.4332410000000 -0.2997240000000 1.0  -0.30
O      2  0.2485040000000  0.2485040000000  0.2544870000000 1.0  -0.02
S      3 -0.1918860000000  0.1291680000000 -0.5136860000000 1.0  -0.07
S      3  0.1291680000000 -0.4235980000000 -0.5136860000000 1.0  -0.07
S      3 -0.4235980000000 -0.1918860000000 -0.5136860000000 1.0  -0.07
S      3  0.3559740000000 -0.2536000000000 -0.0446750000000 1.0   0.09
S      3 -0.2536000000000 -0.0577020000000 -0.0446750000000 1.0   0.09
S      3 -0.0577020000000  0.3559740000000 -0.0446750000000 1.0   0.09
S      3  0.1067400000000  0.1067400000000 -0.3202220000000 1.0   0.06
S      3 -0.0696080000000 -0.0696080000000  0.2088210000000 1.0   0.07
Fe     4  0.1210030000000  0.0338480000000  0.3180570000000 1.0  -0.36
Fe     4  0.0338480000000 -0.4729100000000  0.3180570000000 1.0  -0.36
Fe     4 -0.4729100000000  0.1210030000000  0.3180570000000 1.0  -0.36
Fe     4  0.4215220000000  0.2766670000000 -0.4268920000000 1.0  -2.78
Fe     4  0.2766670000000 -0.2712990000000 -0.4268920000000 1.0  -2.78
Fe     4 -0.2712990000000  0.4215220000000 -0.4268920000000 1.0  -2.78
Fe     4  0.0205750000000  0.0205750000000 -0.0617260000000 1.0  -1.85
Fe     4 -0.3259020000000 -0.3259020000000 -0.0222960000000 1.0   2.15
END
