TITL LFSO-Li5FeSO3-200910-062705-45ac03 0.1440 351.697324 -6.95941303E+003 8.30823 8.52795 20 (P3) n - 1
REM
REM Run started: Fri, 11 Sep 2020 14:09:12 +0100 in /lustre/scratch/uccabz1/launch_tmp/launcher_2020-09-10-05-27-03-394799
REM CASTEP 20.1 from code version af48c487+ pr-geom-scf-spinfix Tue Jun 2 15:39:59 2020 +0100
REM Functional Perdew Burke Ernzerhof Relativity Koelling-Harmon Dispersion off
REM Cut-off 340.0000 eV Grid scale 1.7500 Gmax 16.5316 1/A FBSC none
REM MP grid 3 3 2 Offset 0.000 0.000 0.000 No. kpts 5 Spacing 0.07
REM Total runtime: 100315 s
REM Overall efficiency: 71.6923 %
REM
REM
REM
REM compiler GCC version 4.9.2
REM options -cpp -iprefix /lustre/shared/ucl/apps/gcc/4.9.2/bin/../lib/gcc/x86_64-unknown-linux-gnu/4.9.2/ -mtune=corei7 -march=x86-64 -g -Og
REM COMMAND_LINE
REM seed -345135564 761395294 -1348094190 505700546 -1771069907 747838589 -1332981423 -201099598 1248064814 493245086 22172847 133958090
REM
REM S 3|1.8|5|6|7|30:31:32(qc=5)
REM O 2|1.5|12|13|15|20:21(qc=5)
REM Li 1|1.3|8|9|10|10U:20(qc=5)
REM Fe 3|2.2|2.0|1.0|8|9|10|40:41:32(qc=5)
REM 
CELL 1.54180    6.01865    6.01865   11.21088   90.00000   90.00000  120.00000
LATT -1
SFAC Li O  S  Fe 
Li     1 -0.0312630000000  0.2757950000000  0.4261600000000 1.0  -0.03
Li     1  0.3070580000000  0.0312630000000  0.4261600000000 1.0  -0.03
Li     1 -0.2757950000000 -0.3070580000000  0.4261600000000 1.0  -0.03
Li     1 -0.0023200000000 -0.3834290000000 -0.1039000000000 1.0  -0.01
Li     1 -0.3811090000000  0.0023200000000 -0.1039000000000 1.0  -0.01
Li     1  0.3834290000000  0.3811090000000 -0.1039000000000 1.0  -0.01
Li     1  0.0696400000000  0.3144650000000 -0.2913480000000 1.0   0.02
Li     1  0.2448250000000 -0.0696400000000 -0.2913480000000 1.0   0.02
Li     1 -0.3144650000000 -0.2448250000000 -0.2913480000000 1.0   0.02
Li     1  0.0000000000000  0.0000000000000 -0.0904420000000 1.0  -0.00
O      2  0.2973170000000 -0.0096170000000 -0.1338760000000 1.0   0.11
O      2 -0.3069340000000 -0.2973170000000 -0.1338760000000 1.0   0.11
O      2  0.0096170000000  0.3069340000000 -0.1338760000000 1.0   0.11
O      2 -0.0049820000000  0.4191860000000  0.2732810000000 1.0   0.31
O      2  0.4241680000000  0.0049820000000  0.2732810000000 1.0   0.31
O      2 -0.4191860000000 -0.4241680000000  0.2732810000000 1.0   0.31
S      3  0.0000000000000  0.0000000000000  0.5631930000000 1.0   0.04
S      3  0.3333330000000 -0.3333330000000 -0.4867670000000 1.0   0.36
Fe     4  0.3333330000000 -0.3333330000000  0.3052350000000 1.0   3.56
Fe     4 -0.3333330000000  0.3333330000000  0.2411460000000 1.0   3.16
END
