TITL LFSO-Li6FeS3O-200910-035805-73f762 -0.5350 470.614776 -6.82324209E+003 6.01387 6.55043 22 (P21/c) n - 1
REM
REM Run started: Thu, 10 Sep 2020 09:06:41 +0100 in /lustre/scratch/uccabz1/launch_tmp/launcher_2020-09-10-07-47-40-711871
REM CASTEP 20.1 from code version af48c487+ pr-geom-scf-spinfix Tue Jun 2 15:39:59 2020 +0100
REM Functional Perdew Burke Ernzerhof Relativity Koelling-Harmon Dispersion off
REM Cut-off 340.0000 eV Grid scale 1.7500 Gmax 16.5316 1/A FBSC none
REM MP grid 4 2 2 Offset 0.000 0.000 0.000 No. kpts 4 Spacing 0.07
REM Total runtime: 17468.3 s
REM Overall efficiency: 90.8 %
REM
REM
REM
REM compiler GCC version 4.9.2
REM options -cpp -iprefix /lustre/shared/ucl/apps/gcc/4.9.2/bin/../lib/gcc/x86_64-unknown-linux-gnu/4.9.2/ -mtune=corei7 -march=x86-64 -g -Og
REM COMMAND_LINE
REM seed -115112214 715036006 1947789985 -365121266 976711127 -434983398 1944220450 566617054 -1813350290 862998478 -1446543093 548888832
REM
REM S 3|1.8|5|6|7|30:31:32(qc=5)
REM O 2|1.5|12|13|15|20:21(qc=5)
REM Li 1|1.3|8|9|10|10U:20(qc=5)
REM Fe 3|2.2|2.0|1.0|8|9|10|40:41:32(qc=5)
REM 
CELL 1.54180    4.98068    9.21630   10.79522   90.00000   90.00000  108.24878
LATT -1
SFAC Li O  S  Fe 
Li     1 -0.1647110000000  0.2937530000000  0.0133980000000 1.0  -0.06
Li     1 -0.3352890000000  0.2062470000000 -0.4866020000000 1.0  -0.06
Li     1  0.1647110000000 -0.2937530000000 -0.0133980000000 1.0  -0.06
Li     1  0.3352890000000 -0.2062470000000  0.4866020000000 1.0  -0.06
Li     1 -0.0683350000000 -0.1210290000000  0.1807240000000 1.0  -0.00
Li     1  0.5683350000000 -0.3789710000000 -0.3192760000000 1.0  -0.00
Li     1  0.0683350000000  0.1210290000000 -0.1807240000000 1.0  -0.00
Li     1 -0.5683350000000  0.3789710000000  0.3192760000000 1.0  -0.00
Li     1  0.4133290000000 -0.0323650000000 -0.3414950000000 1.0   0.01
Li     1  0.0866710000000 -0.4676350000000  0.1585050000000 1.0   0.01
Li     1 -0.4133290000000  0.0323650000000  0.3414950000000 1.0   0.01
Li     1 -0.0866710000000  0.4676350000000 -0.1585050000000 1.0   0.01
O      2 -0.0000000000000  0.5000000000000  0.0000000000000 1.0   0.01
O      2 -0.5000000000000  0.0000000000000 -0.5000000000000 1.0   0.01
S      3  0.5891410000000  0.1644120000000 -0.1779440000000 1.0   0.01
S      3 -0.0891410000000  0.3355880000000  0.3220560000000 1.0   0.01
S      3 -0.5891410000000 -0.1644120000000  0.1779440000000 1.0   0.01
S      3  0.0891410000000 -0.3355880000000 -0.3220560000000 1.0   0.01
S      3  0.0000000000000  0.0000000000000  0.0000000000000 1.0   0.05
S      3  0.5000000000000  0.5000000000000 -0.5000000000000 1.0   0.05
Fe     4 -0.5000000000000  0.0000000000000  0.0000000000000 1.0   3.04
Fe     4 -0.0000000000000  0.5000000000000 -0.5000000000000 1.0   3.04
END
