TITL LFSO-LiFeSO-200921-191808-4bf8b3 0.1406 386.528948 -9.02539406E+003 17.0444 17.4575 20 (Pm) n - 1
REM
REM Run started: Tue, 22 Sep 2020 13:31:51 +0100 in /lustre/scratch/uccabz1/launch_tmp/launcher_2020-09-21-20-30-20-942878
REM CASTEP 20.1 from code version af48c487+ pr-geom-scf-spinfix Tue Jun 2 15:39:59 2020 +0100
REM Functional Perdew Burke Ernzerhof Relativity Koelling-Harmon Dispersion off
REM Cut-off 340.0000 eV Grid scale 1.7500 Gmax 16.5316 1/A FBSC none
REM MP grid 2 3 3 Offset 0.000 0.000 0.000 No. kpts 5 Spacing 0.07
REM Total runtime: 68569.6 s
REM Overall efficiency: 74.3846 %
REM
REM
REM
REM compiler GCC version 4.9.2
REM options -cpp -iprefix /lustre/shared/ucl/apps/gcc/4.9.2/bin/../lib/gcc/x86_64-unknown-linux-gnu/4.9.2/ -mtune=corei7 -march=x86-64 -g -Og
REM COMMAND_LINE
REM seed 147978152 1418284191 622380550 -669123862 -108992702 -1895479117 487622650 639939664 56528639 1970707606 246810299 958070918
REM
REM S 3|1.8|5|6|7|30:31:32(qc=5)
REM O 2|1.5|12|13|15|20:21(qc=5)
REM Li 1|1.3|8|9|10|10U:20(qc=5)
REM Fe 3|2.2|2.0|1.0|8|9|10|40:41:32(qc=5)
REM 
CELL 1.54180    9.15485    6.67381    6.56810  105.59145   90.00000   90.00000
LATT -1
SFAC Li O  S  Fe 
Li     1  0.2188730000000 -0.5443640000000 -0.3461730000000 1.0   0.05
Li     1 -0.2188730000000 -0.5443640000000 -0.3461730000000 1.0   0.05
Li     1 -0.2823670000000  0.2354760000000  0.1232540000000 1.0   0.04
Li     1  0.2823670000000  0.2354760000000  0.1232540000000 1.0   0.04
Li     1  0.5000000000000  0.0498950000000  0.4302190000000 1.0   0.02
O      2  0.2047400000000 -0.2763360000000 -0.1666570000000 1.0   0.27
O      2 -0.2047400000000 -0.2763360000000 -0.1666570000000 1.0   0.27
O      2 -0.3362580000000  0.0227270000000  0.2346100000000 1.0   0.36
O      2  0.3362580000000  0.0227270000000  0.2346100000000 1.0   0.36
O      2  0.5000000000000  0.6776730000000  0.0329110000000 1.0   0.16
S      3 -0.2227930000000 -0.4091160000000  0.3264940000000 1.0   0.27
S      3  0.2227930000000 -0.4091160000000  0.3264940000000 1.0   0.27
S      3 -0.3101600000000  0.1570890000000 -0.2536190000000 1.0   0.17
S      3  0.3101600000000  0.1570890000000 -0.2536190000000 1.0   0.17
S      3  0.0000000000000  0.0519990000000  0.5179200000000 1.0   0.10
Fe     4  0.1760490000000 -0.1202860000000 -0.3601780000000 1.0   2.88
Fe     4 -0.1760490000000 -0.1202860000000 -0.3601780000000 1.0   2.88
Fe     4 -0.3207660000000 -0.2224630000000  0.0688410000000 1.0   2.80
Fe     4  0.3207660000000 -0.2224630000000  0.0688410000000 1.0   2.80
Fe     4  0.0000000000000 -0.2760710000000  0.3264910000000 1.0   3.11
END
