TITL LFSO-LiFeSO-200909-045038-b6ab22 0.0114 264.057755 -7.21993633E+003 4.07123 12.1457 16 (P3) n - 1
REM
REM Run started: Wed, 09 Sep 2020 09:13:38 +0100 in /lustre/scratch/uccabz1/launch_tmp/launcher_2020-09-09-03-50-34-989223
REM CASTEP 20.1 from code version af48c487+ pr-geom-scf-spinfix Tue Jun 2 15:39:59 2020 +0100
REM Functional Perdew Burke Ernzerhof Relativity Koelling-Harmon Dispersion off
REM Cut-off 340.0000 eV Grid scale 1.7500 Gmax 16.5316 1/A FBSC none
REM MP grid 3 3 3 Offset 0.000 0.000 0.000 No. kpts 8 Spacing 0.07
REM Total runtime: 16567.6 s
REM Overall efficiency: 97.5 %
REM
REM
REM
REM compiler GCC version 4.9.2
REM options -cpp -iprefix /lustre/shared/ucl/apps/gcc/4.9.2/bin/../lib/gcc/x86_64-unknown-linux-gnu/4.9.2/ -mtune=corei7 -march=x86-64 -g -Og
REM COMMAND_LINE
REM seed -327015681 166996160 -485701774 40786103 -1288150889 -1545553205 530133112 1460258070 -1006910975 1478540046 1445522630 266244363
REM
REM S 3|1.8|5|6|7|30:31:32(qc=5)
REM O 2|1.5|12|13|15|20:21(qc=5)
REM Li 1|1.3|8|9|10|10U:20(qc=5)
REM Fe 3|2.2|2.0|1.0|8|9|10|40:41:32(qc=5)
REM 
CELL 1.54180    7.10093    7.10093    6.04697   90.00000   90.00000  120.00000
LATT -1
SFAC Li O  S  Fe 
Li     1 -0.0519210000000  0.2468280000000  0.2954660000000 1.0   0.03
Li     1 -0.2468280000000 -0.2987490000000  0.2954660000000 1.0   0.03
Li     1  0.2987490000000  0.0519210000000  0.2954660000000 1.0   0.03
Li     1  0.3333330000000 -0.3333330000000 -0.0480960000000 1.0   0.16
O      2 -0.6626250000000 -0.0814070000000 -0.4445960000000 1.0  -0.02
O      2  0.0814070000000 -0.5812170000000 -0.4445960000000 1.0  -0.02
O      2  0.5812170000000  0.6626250000000 -0.4445960000000 1.0  -0.02
O      2 -0.0000000000000  0.0000000000000 -0.4656610000000 1.0   0.18
S      3 -0.2882870000000 -0.0141540000000 -0.0217910000000 1.0   0.02
S      3  0.0141540000000 -0.2741330000000 -0.0217910000000 1.0   0.02
S      3  0.2741330000000  0.2882870000000 -0.0217910000000 1.0   0.02
S      3 -0.3333330000000  0.3333330000000  0.1899300000000 1.0  -0.59
Fe     4 -0.0098140000000  0.1976160000000 -0.2500410000000 1.0   2.46
Fe     4 -0.1976160000000 -0.2074300000000 -0.2500410000000 1.0   2.46
Fe     4  0.2074300000000  0.0098140000000 -0.2500410000000 1.0   2.46
Fe     4  0.3333330000000 -0.3333330000000 -0.4851790000000 1.0  -3.10
END
