TITL LFSO-Li4Fe2S4O-200910-163650-7c0789 -0.2119 432.378959 -8.36296145E+003 -9.81383 10.6522 22 (P-1) n - 1
REM
REM Run started: Sat, 12 Sep 2020 00:38:03 +0100 in /lustre/scratch/uccabz1/launch_tmp/launcher_2020-09-10-15-36-48-706790
REM CASTEP 20.1 from code version af48c487+ pr-geom-scf-spinfix Tue Jun 2 15:39:59 2020 +0100
REM Functional Perdew Burke Ernzerhof Relativity Koelling-Harmon Dispersion off
REM Cut-off 340.0000 eV Grid scale 1.7500 Gmax 16.5316 1/A FBSC none
REM MP grid 3 3 2 Offset 0.000 0.000 0.000 No. kpts 9 Spacing 0.07
REM Total runtime: 125700 s
REM Overall efficiency: 98.9167 %
REM
REM
REM
REM compiler GCC version 4.9.2
REM options -cpp -iprefix /lustre/shared/ucl/apps/gcc/4.9.2/bin/../lib/gcc/x86_64-unknown-linux-gnu/4.9.2/ -mtune=corei7 -march=x86-64 -g -Og
REM COMMAND_LINE
REM seed -1346845976 1605819420 2143220441 556294347 578728833 -2011870703 -1022833390 1387823906 203506489 -1268183535 898499299 -1838008303
REM
REM S 3|1.8|5|6|7|30:31:32(qc=5)
REM O 2|1.5|12|13|15|20:21(qc=5)
REM Li 1|1.3|8|9|10|10U:20(qc=5)
REM Fe 3|2.2|2.0|1.0|8|9|10|40:41:32(qc=5)
REM 
CELL 1.54180    8.18054    8.48395    9.16900   70.15521   84.84101   47.51009
LATT -1
SFAC Li O  S  Fe 
Li     1  0.0972540000000  0.0960690000000  0.3106300000000 1.0   0.01
Li     1 -0.0972540000000 -0.0960690000000 -0.3106300000000 1.0   0.01
Li     1 -0.3310340000000 -0.2120340000000  0.3691400000000 1.0  -0.03
Li     1  0.3310340000000  0.2120340000000 -0.3691400000000 1.0  -0.03
Li     1  0.6071310000000 -0.6205820000000  0.1356020000000 1.0   0.00
Li     1 -0.6071310000000  0.6205820000000 -0.1356020000000 1.0   0.00
Li     1 -0.1974470000000 -0.4483100000000 -0.1819250000000 1.0  -0.04
Li     1  0.1974470000000  0.4483100000000  0.1819250000000 1.0  -0.04
O      2 -0.6131990000000  0.4077870000000  0.0329500000000 1.0  -0.17
O      2  0.6131990000000 -0.4077870000000 -0.0329500000000 1.0  -0.17
S      3 -0.3558870000000 -0.0383200000000 -0.1483850000000 1.0  -0.05
S      3  0.3558870000000  0.0383200000000  0.1483850000000 1.0  -0.05
S      3 -0.1458370000000  0.4937670000000  0.2655220000000 1.0  -0.06
S      3  0.1458370000000 -0.4937670000000 -0.2655220000000 1.0  -0.06
S      3 -0.3836380000000 -0.4617750000000 -0.3972120000000 1.0  -0.11
S      3  0.3836380000000  0.4617750000000  0.3972120000000 1.0  -0.11
S      3  0.1203260000000  0.0043140000000 -0.3935570000000 1.0  -0.03
S      3 -0.1203260000000 -0.0043140000000  0.3935570000000 1.0  -0.03
Fe     4 -0.2593830000000  0.3016280000000  0.4701060000000 1.0  -2.51
Fe     4  0.2593830000000 -0.3016280000000 -0.4701060000000 1.0  -2.51
Fe     4 -0.4080970000000 -0.2325890000000  0.0481680000000 1.0  -1.92
Fe     4  0.4080970000000  0.2325890000000 -0.0481680000000 1.0  -1.92
END
