TITL LFSO-Li3Fe3S5O-201002-142514-3f0121 -0.0703 344.578831 -5.14392857E+003 9.60605 10.0260 12 (R3) n - 1
REM
REM Run started: Fri, 02 Oct 2020 15:46:01 +0100 in /lustre/scratch/uccabz1/launch_tmp/launcher_2020-10-02-13-25-11-881377
REM CASTEP 20.1 from code version af48c487+ pr-geom-scf-spinfix Tue Jun 2 15:39:59 2020 +0100
REM Functional Perdew Burke Ernzerhof Relativity Koelling-Harmon Dispersion off
REM Cut-off 340.0000 eV Grid scale 1.7500 Gmax 16.5316 1/A FBSC none
REM MP grid 3 3 3 Offset 0.000 0.000 0.000 No. kpts 6 Spacing 0.07
REM Total runtime: 5144.97 s
REM Overall efficiency: 94.7143 %
REM
REM
REM
REM compiler GCC version 4.9.2
REM options -cpp -iprefix /lustre/shared/ucl/apps/gcc/4.9.2/bin/../lib/gcc/x86_64-unknown-linux-gnu/4.9.2/ -mtune=corei7 -march=x86-64 -g -Og
REM COMMAND_LINE
REM seed -2105717875 -1997440542 -661232610 -1263528097 -1747499426 -1494123271 1590377757 475003173 902378270 29178471 -271881335 -199557326
REM
REM S 3|1.8|5|6|7|30:31:32(qc=5)
REM O 2|1.5|12|13|15|20:21(qc=5)
REM Li 1|1.3|8|9|10|10U:20(qc=5)
REM Fe 3|2.2|2.0|1.0|8|9|10|40:41:32(qc=5)
REM 
CELL 1.54180    7.09263    7.09263    7.09263   80.88634   80.88634   80.88634
LATT -1
SFAC Li O  S  Fe 
Li     1 -0.0465590000000  0.4101380000000 -0.3346140000000 1.0  -0.01
Li     1 -0.3346140000000 -0.0465590000000  0.4101380000000 1.0  -0.01
Li     1  0.4101380000000 -0.3346140000000 -0.0465590000000 1.0  -0.01
O      2  0.4111970000000  0.4111970000000  0.4111970000000 1.0   0.22
S      3 -0.4112670000000 -0.1409830000000  0.1077540000000 1.0   0.12
S      3  0.1077540000000 -0.4112670000000 -0.1409830000000 1.0   0.12
S      3 -0.1409830000000  0.1077540000000 -0.4112670000000 1.0   0.12
S      3 -0.3660640000000 -0.3660640000000 -0.3660640000000 1.0   0.21
S      3 -0.1323850000000 -0.1323850000000 -0.1323850000000 1.0  -0.06
Fe     4 -0.3911420000000  0.3289440000000 -0.4243980000000 1.0   2.97
Fe     4 -0.4243980000000 -0.3911420000000  0.3289440000000 1.0   2.97
Fe     4  0.3289440000000 -0.4243980000000 -0.3911420000000 1.0   2.97
END
