TITL LFSO-Li2Fe3SO3-200912-155338-ea0544 -0.0310 163.016221 -4.60743514E+003 11.9999 12.2485 9 (P3m1) n - 1
REM
REM Run started: Sat, 12 Sep 2020 17:28:09 +0100 in /lustre/scratch/uccabz1/launch_tmp/launcher_2020-09-12-14-53-36-607908
REM CASTEP 20.1 from code version af48c487+ pr-geom-scf-spinfix Tue Jun 2 15:39:59 2020 +0100
REM Functional Perdew Burke Ernzerhof Relativity Koelling-Harmon Dispersion off
REM Cut-off 340.0000 eV Grid scale 1.7500 Gmax 16.5316 1/A FBSC none
REM MP grid 3 3 3 Offset 0.000 0.000 0.000 No. kpts 8 Spacing 0.07
REM Total runtime: 6224.81 s
REM Overall efficiency: 95.6 %
REM
REM
REM
REM compiler GCC version 4.9.2
REM options -cpp -iprefix /lustre/shared/ucl/apps/gcc/4.9.2/bin/../lib/gcc/x86_64-unknown-linux-gnu/4.9.2/ -mtune=corei7 -march=x86-64 -g -Og
REM COMMAND_LINE
REM seed 907762585 1456407795 -801814243 117586429 -378138441 794056870 -732709666 -1955512278 1260989015 1026629043 987469284 -993396816
REM
REM S 3|1.8|5|6|7|30:31:32(qc=5)
REM O 2|1.5|12|13|15|20:21(qc=5)
REM Li 1|1.3|8|9|10|10U:20(qc=5)
REM Fe 3|2.2|2.0|1.0|8|9|10|40:41:32(qc=5)
REM 
CELL 1.54180    6.07857    6.07857    5.09445   90.00000   90.00000  120.00000
LATT -1
SFAC Li O  S  Fe 
Li     1  0.0000000000000 -0.0000000000000 -0.2002840000000 1.0  -0.04
Li     1  0.3333330000000 -0.3333330000000 -0.3947750000000 1.0  -0.08
O      2  0.1824230000000 -0.1723230000000 -0.1535270000000 1.0   0.41
O      2  0.1723230000000  0.3547460000000 -0.1535270000000 1.0   0.41
O      2 -0.3547460000000 -0.1824230000000 -0.1535270000000 1.0   0.41
S      3 -0.3333330000000  0.3333330000000  0.2957210000000 1.0   0.22
Fe     4 -0.4983290000000 -0.0080540000000  0.0152110000000 1.0   3.55
Fe     4  0.0080540000000 -0.4902750000000  0.0152110000000 1.0   3.55
Fe     4  0.4902750000000  0.4983290000000  0.0152110000000 1.0   3.55
END
