TITL LFSO-Li2Fe2SO3-200913-104224-f0a0b4 -0.0446 104.114748 -3.74176125E+003 5.20835 5.56326 8 (P4mm) n - 1
REM
REM Run started: Sun, 13 Sep 2020 10:54:25 +0100 in /lustre/scratch/uccabz1/launch_tmp/launcher_2020-09-13-09-42-23-058604
REM CASTEP 20.1 from code version af48c487+ pr-geom-scf-spinfix Tue Jun 2 15:39:59 2020 +0100
REM Functional Perdew Burke Ernzerhof Relativity Koelling-Harmon Dispersion off
REM Cut-off 340.0000 eV Grid scale 1.7500 Gmax 16.5316 1/A FBSC none
REM MP grid 4 4 2 Offset 0.000 0.000 0.000 No. kpts 3 Spacing 0.07
REM Total runtime: 788.85 s
REM Overall efficiency: 87.4 %
REM
REM
REM
REM compiler GCC version 4.9.2
REM options -cpp -iprefix /lustre/shared/ucl/apps/gcc/4.9.2/bin/../lib/gcc/x86_64-unknown-linux-gnu/4.9.2/ -mtune=corei7 -march=x86-64 -g -Og
REM COMMAND_LINE
REM seed -219620945 1714710087 -1233424732 -1469507666 286994425 -13554394 648230706 -419216517 907360320 -1511450542 2077898095 779146975
REM
REM S 3|1.8|5|6|7|30:31:32(qc=5)
REM O 2|1.5|12|13|15|20:21(qc=5)
REM Li 1|1.3|8|9|10|10U:20(qc=5)
REM Fe 3|2.2|2.0|1.0|8|9|10|40:41:32(qc=5)
REM 
CELL 1.54180    3.80754    3.80754    7.18163   90.00000   90.00000   90.00000
LATT -1
SFAC Li O  S  Fe 
Li     1 -0.0000000000000  0.5000000000000 -0.2878510000000 1.0   0.02
Li     1  0.5000000000000 -0.0000000000000 -0.2878510000000 1.0   0.02
O      2 -0.0000000000000  0.5000000000000  0.4663080000000 1.0   0.51
O      2  0.5000000000000 -0.0000000000000  0.4663080000000 1.0   0.51
O      2 -0.0000000000000 -0.0000000000000 -0.1880490000000 1.0  -0.05
S      3 -0.0000000000000 -0.0000000000000  0.0596160000000 1.0  -0.07
Fe     4 -0.5000000000000 -0.0000000000000  0.2359560000000 1.0   2.14
Fe     4 -0.0000000000000 -0.5000000000000  0.2359560000000 1.0   2.14
END
