TITL LFSO-Li2Fe3S3O-200912-214429-41f11a 0.8326 356.639052 -8.68134653E+003 11.9121 13.7994 18 (P-1) n - 1
REM
REM Run started: Wed, 16 Sep 2020 01:50:44 +0100 in /lustre/scratch/uccabz1/launch_tmp/launcher_2020-09-15-22-08-39-118185
REM CASTEP 20.1 from code version af48c487+ pr-geom-scf-spinfix Tue Jun 2 15:39:59 2020 +0100
REM Functional Perdew Burke Ernzerhof Relativity Koelling-Harmon Dispersion off
REM Cut-off 340.0000 eV Grid scale 1.7500 Gmax 16.5316 1/A FBSC none
REM MP grid 3 3 2 Offset 0.000 0.000 0.000 No. kpts 9 Spacing 0.07
REM Total runtime: 138297 s
REM Overall efficiency: 98.8333 %
REM
REM
REM
REM compiler GCC version 4.9.2
REM options -cpp -iprefix /lustre/shared/ucl/apps/gcc/4.9.2/bin/../lib/gcc/x86_64-unknown-linux-gnu/4.9.2/ -mtune=corei7 -march=x86-64 -g -Og
REM COMMAND_LINE
REM seed 2065909231 1244342941 -1774523900 1179534872 2113815038 -1757305532 1122732776 1044439038 166970906 -494960909 -594926737 804154282
REM
REM S 3|1.8|5|6|7|30:31:32(qc=5)
REM O 2|1.5|12|13|15|20:21(qc=5)
REM Li 1|1.3|8|9|10|10U:20(qc=5)
REM Fe 3|2.2|2.0|1.0|8|9|10|40:41:32(qc=5)
REM 
CELL 1.54180    8.36917    7.38946   12.15735   54.12707   44.34269   43.23466
LATT -1
SFAC Li O  S  Fe 
Li     1 -0.1313880000000 -0.1111670000000 -0.5095950000000 1.0  -0.01
Li     1  0.1313880000000  0.1111670000000  0.5095950000000 1.0  -0.01
Li     1 -0.3822280000000  0.2704380000000  0.2161060000000 1.0   0.02
Li     1  0.3822280000000 -0.2704380000000 -0.2161060000000 1.0   0.02
O      2  0.5000650000000 -0.3919700000000  0.1142190000000 1.0   0.08
O      2 -0.5000650000000  0.3919700000000 -0.1142190000000 1.0   0.08
S      3  0.3094860000000 -0.5063830000000  0.4619800000000 1.0   0.18
S      3 -0.3094860000000  0.5063830000000 -0.4619800000000 1.0   0.18
S      3 -0.0079090000000  0.1785980000000  0.2309550000000 1.0   0.10
S      3  0.0079090000000 -0.1785980000000 -0.2309550000000 1.0   0.10
S      3  0.4953670000000  0.0136550000000 -0.2428080000000 1.0   0.11
S      3 -0.4953670000000 -0.0136550000000  0.2428080000000 1.0   0.11
Fe     4 -0.3485740000000  0.5484860000000  0.3563820000000 1.0   2.98
Fe     4  0.3485740000000 -0.5484860000000 -0.3563820000000 1.0   2.98
Fe     4 -0.6371100000000  0.1976840000000  0.0665280000000 1.0  -0.16
Fe     4  0.6371100000000 -0.1976840000000 -0.0665280000000 1.0  -0.16
Fe     4 -0.3893290000000  0.2086770000000 -0.2323840000000 1.0   2.66
Fe     4  0.3893290000000 -0.2086770000000  0.2323840000000 1.0   2.66
END
