TITL LFSO-Li3FeS2O-200911-185617-622863 0.0095 253.047554 -5.01876434E+003 0.310110E-05 1.91144 14 (R3m) n - 1
REM
REM Run started: Sat, 12 Sep 2020 01:55:06 +0100 in /lustre/scratch/uccabz1/launch_tmp/launcher_2020-09-11-17-56-15-444861
REM CASTEP 20.1 from code version af48c487+ pr-geom-scf-spinfix Tue Jun 2 15:39:59 2020 +0100
REM Functional Perdew Burke Ernzerhof Relativity Koelling-Harmon Dispersion off
REM Cut-off 340.0000 eV Grid scale 1.7500 Gmax 16.5316 1/A FBSC none
REM MP grid 3 3 3 Offset 0.000 0.000 0.000 No. kpts 6 Spacing 0.07
REM Total runtime: 26914.8 s
REM Overall efficiency: 97.625 %
REM
REM
REM
REM compiler GCC version 4.9.2
REM options -cpp -iprefix /lustre/shared/ucl/apps/gcc/4.9.2/bin/../lib/gcc/x86_64-unknown-linux-gnu/4.9.2/ -mtune=corei7 -march=x86-64 -g -Og
REM COMMAND_LINE
REM seed 1192773117 -634421770 -1302601362 -1127854845 -147360520 1014002248 -14688014 -1811675254 -154140593 869234026 1720976021 163405916
REM
REM S 3|1.8|5|6|7|30:31:32(qc=5)
REM O 2|1.5|12|13|15|20:21(qc=5)
REM Li 1|1.3|8|9|10|10U:20(qc=5)
REM Fe 3|2.2|2.0|1.0|8|9|10|40:41:32(qc=5)
REM 
CELL 1.54180    6.80175    6.80175    6.80175   66.36398   66.36398   66.36398
LATT -1
SFAC Li O  S  Fe 
Li     1  0.3121580000000 -0.1145620000000 -0.1148350000000 1.0
Li     1 -0.1148350000000  0.3121580000000 -0.1145620000000 1.0
Li     1 -0.1145620000000 -0.1148350000000  0.3121580000000 1.0
Li     1  0.4368790000000 -0.2186570000000 -0.5628380000000 1.0
Li     1 -0.5628380000000  0.4368790000000 -0.2186570000000 1.0
Li     1 -0.2186570000000 -0.5628380000000  0.4368790000000 1.0
O      2  0.4632070000000  0.4632070000000  0.4632070000000 1.0
O      2  0.0772940000000  0.0772940000000  0.0772940000000 1.0
S      3  0.5493540000000  0.1274790000000  0.1281160000000 1.0
S      3  0.1281160000000  0.5493540000000  0.1274790000000 1.0
S      3  0.1274790000000  0.1281160000000  0.5493540000000 1.0
S      3 -0.3265540000000 -0.3265540000000 -0.3265540000000 1.0
Fe     4  0.3513670000000  0.3513670000000  0.3513670000000 1.0
Fe     4  0.1882400000000  0.1882400000000  0.1882400000000 1.0
END
