TITL LFSO-Li4Fe3S2O3-201001-005413-c4f356 -0.0312 135.274958 -5.30494759E+003 0.182842E-02 0.718968 12 (I-4) n - 1
REM
REM Run started: Thu, 01 Oct 2020 11:24:50 +0100 in /lustre/scratch/uccabz1/launch_tmp/launcher_2020-09-30-23-54-11-999569
REM CASTEP 20.1 from code version af48c487+ pr-geom-scf-spinfix Tue Jun 2 15:39:59 2020 +0100
REM Functional Perdew Burke Ernzerhof Relativity Koelling-Harmon Dispersion off
REM Cut-off 340.0000 eV Grid scale 1.7500 Gmax 16.5316 1/A FBSC none
REM MP grid 4 4 3 Offset 0.000 0.000 0.000 No. kpts 22 Spacing 0.07
REM Total runtime: 25614.1 s
REM Overall efficiency: 62.7778 %
REM
REM
REM
REM compiler GCC version 4.9.2
REM options -cpp -iprefix /lustre/shared/ucl/apps/gcc/4.9.2/bin/../lib/gcc/x86_64-unknown-linux-gnu/4.9.2/ -mtune=corei7 -march=x86-64 -g -Og
REM COMMAND_LINE
REM seed 1947482783 619698902 -1115043540 1433833251 -1629617705 -1428663047 1180000433 -405356564 -1493782928 1712593214 -1019357902 68340254
REM
REM S 3|1.8|5|6|7|30:31:32(qc=5)
REM O 2|1.5|12|13|15|20:21(qc=5)
REM Li 1|1.3|8|9|10|10U:20(qc=5)
REM Fe 3|2.2|2.0|1.0|8|9|10|40:41:32(qc=5)
REM 
CELL 1.54180    4.80895    4.80895    6.76605  110.81634  110.81634   90.00000
LATT -1
SFAC Li O  S  Fe 
Li     1 -0.1156340000000 -0.3533640000000 -0.2556630000000 1.0  -0.00
Li     1 -0.1400290000000  0.0977010000000 -0.2556630000000 1.0  -0.00
Li     1  0.3533640000000  0.1400290000000  0.2556630000000 1.0  -0.00
Li     1 -0.0977010000000  0.1156340000000  0.2556630000000 1.0  -0.00
O      2 -0.2578830000000 -0.2578830000000 -0.5157660000000 1.0  -0.00
O      2  0.2578830000000  0.2578830000000  0.5157660000000 1.0  -0.00
O      2 -0.0000000000000  0.0000000000000  0.0000000000000 1.0  -0.00
S      3  0.0630670000000 -0.4369330000000  0.1261340000000 1.0  -0.00
S      3  0.4369330000000 -0.0630670000000 -0.1261340000000 1.0  -0.00
Fe     4  0.4183620000000  0.4183620000000 -0.1632760000000 1.0   0.00
Fe     4 -0.4183620000000 -0.4183620000000  0.1632760000000 1.0   0.00
Fe     4  0.2500000000000 -0.2500000000000  0.5000000000000 1.0  -0.01
END
