TITL LFSO-Li2Fe3S2O2-200921-013036-111f83 0.0097 281.303927 -8.95045948E+003 -6.91669 18.2902 18 (P21212) n - 1
REM
REM Run started: Mon, 21 Sep 2020 09:28:20 +0100 in /lustre/scratch/uccabz1/launch_tmp/launcher_2020-09-21-01-53-18-364480
REM CASTEP 20.1 from code version af48c487+ pr-geom-scf-spinfix Tue Jun 2 15:39:59 2020 +0100
REM Functional Perdew Burke Ernzerhof Relativity Koelling-Harmon Dispersion off
REM Cut-off 340.0000 eV Grid scale 1.7500 Gmax 16.5316 1/A FBSC none
REM MP grid 3 2 3 Offset 0.000 0.000 0.000 No. kpts 4 Spacing 0.07
REM Total runtime: 29852.2 s
REM Overall efficiency: 97.6667 %
REM
REM
REM
REM compiler GCC version 4.9.2
REM options -cpp -iprefix /lustre/shared/ucl/apps/gcc/4.9.2/bin/../lib/gcc/x86_64-unknown-linux-gnu/4.9.2/ -mtune=corei7 -march=x86-64 -g -Og
REM COMMAND_LINE
REM seed 1851169092 969212455 1619562769 473195052 -856558191 1853270712 -194830815 -913824761 1069629867 767552108 845352817 831115728
REM
REM S 3|1.8|5|6|7|30:31:32(qc=5)
REM O 2|1.5|12|13|15|20:21(qc=5)
REM Li 1|1.3|8|9|10|10U:20(qc=5)
REM Fe 3|2.2|2.0|1.0|8|9|10|40:41:32(qc=5)
REM 
CELL 1.54180    5.68062    7.43555    6.65988   90.00000   90.00000   90.00000
LATT -1
SFAC Li O  S  Fe 
Li     1 -0.4124000000000  0.4632570000000 -0.3193290000000 1.0  -0.02
Li     1  0.4124000000000  0.4632570000000  0.3193290000000 1.0  -0.02
Li     1  0.0876000000000 -0.4632570000000 -0.1806710000000 1.0  -0.02
Li     1 -0.0876000000000 -0.4632570000000  0.1806710000000 1.0  -0.02
O      2 -0.2376090000000 -0.3883710000000 -0.1378200000000 1.0   0.02
O      2  0.2376090000000 -0.3883710000000  0.1378200000000 1.0   0.02
O      2  0.2623910000000  0.3883710000000 -0.3621800000000 1.0   0.02
O      2 -0.2623910000000  0.3883710000000  0.3621800000000 1.0   0.02
S      3 -0.2611880000000 -0.1299030000000  0.2073590000000 1.0  -0.07
S      3  0.2611880000000 -0.1299030000000 -0.2073590000000 1.0  -0.07
S      3  0.2388120000000  0.1299030000000  0.2926410000000 1.0  -0.07
S      3 -0.2388120000000  0.1299030000000 -0.2926410000000 1.0  -0.07
Fe     4  0.1357300000000 -0.1361750000000  0.1429800000000 1.0  -3.06
Fe     4 -0.1357300000000 -0.1361750000000 -0.1429800000000 1.0  -3.06
Fe     4 -0.3642700000000  0.1361750000000  0.3570200000000 1.0  -3.06
Fe     4  0.3642700000000  0.1361750000000 -0.3570200000000 1.0  -3.06
Fe     4  0.5000000000000 -0.2867910000000  0.0000000000000 1.0   2.80
Fe     4 -0.0000000000000  0.2867910000000  0.5000000000000 1.0   2.80
END
