TITL LFSO-Li2Fe4S4O-200911-213135-d32924 -0.3477 304.884243 -1.10178380E+004 3.85784 6.67003 22 (Pc) n - 1
REM
REM Run started: Sun, 13 Sep 2020 22:25:33 +0100 in /lustre/scratch/uccabz1/launch_tmp/launcher_2020-09-13-20-29-51-603797
REM CASTEP 20.1 from code version af48c487+ pr-geom-scf-spinfix Tue Jun 2 15:39:59 2020 +0100
REM Functional Perdew Burke Ernzerhof Relativity Koelling-Harmon Dispersion off
REM Cut-off 340.0000 eV Grid scale 1.7500 Gmax 16.5316 1/A FBSC none
REM MP grid 5 2 2 Offset 0.000 0.000 0.000 No. kpts 5 Spacing 0.07
REM Total runtime: 176244 s
REM Overall efficiency: 88.1 %
REM
REM
REM
REM compiler GCC version 4.9.2
REM options -cpp -iprefix /lustre/shared/ucl/apps/gcc/4.9.2/bin/../lib/gcc/x86_64-unknown-linux-gnu/4.9.2/ -mtune=corei7 -march=x86-64 -g -Og
REM COMMAND_LINE
REM seed 1395401001 -372045969 -1912899610 892204092 1899245866 1358284734 -393107923 440917760 -198661440 1078660233 -1614644103 1266320879
REM
REM S 3|1.8|5|6|7|30:31:32(qc=5)
REM O 2|1.5|12|13|15|20:21(qc=5)
REM Li 1|1.3|8|9|10|10U:20(qc=5)
REM Fe 3|2.2|2.0|1.0|8|9|10|40:41:32(qc=5)
REM 
CELL 1.54180    3.40975    7.47726   12.31899   90.00000  103.89861   90.00000
LATT -1
SFAC Li O  S  Fe 
Li     1  0.2840680000000 -0.2126690000000  0.0722350000000 1.0  -0.01
Li     1 -0.2159320000000  0.2126690000000 -0.4277650000000 1.0  -0.01
Li     1  0.2603300000000  0.0327120000000  0.4270310000000 1.0  -0.00
Li     1 -0.2396700000000 -0.0327120000000 -0.0729690000000 1.0  -0.00
O      2 -0.2347370000000  0.1531410000000  0.4195680000000 1.0   0.06
O      2  0.2652630000000 -0.1531410000000 -0.0804320000000 1.0   0.06
S      3  0.6350630000000  0.4720290000000  0.2099200000000 1.0  -0.01
S      3  0.1350630000000 -0.4720290000000 -0.2900800000000 1.0  -0.01
S      3 -0.3398020000000  0.1004380000000 -0.2449830000000 1.0   0.07
S      3  0.1601980000000 -0.1004380000000  0.2550170000000 1.0   0.07
S      3 -0.6453510000000 -0.4705090000000  0.4601070000000 1.0  -0.02
S      3 -0.1453510000000  0.4705090000000 -0.0398930000000 1.0  -0.02
S      3  0.0313150000000 -0.1405870000000 -0.4206910000000 1.0   0.03
S      3 -0.4686850000000  0.1405870000000  0.0793090000000 1.0   0.03
Fe     4  0.0600140000000  0.3380040000000  0.1225960000000 1.0  -0.42
Fe     4  0.5600140000000 -0.3380040000000 -0.3774040000000 1.0  -0.42
Fe     4 -0.2222700000000  0.3920350000000  0.3787290000000 1.0   1.19
Fe     4  0.2777300000000 -0.3920350000000 -0.1212710000000 1.0   1.19
Fe     4  0.1596990000000 -0.0974490000000 -0.2425210000000 1.0  -0.13
Fe     4 -0.3403010000000  0.0974490000000  0.2574790000000 1.0  -0.13
Fe     4  0.1970980000000  0.6062740000000  0.2836170000000 1.0   1.18
Fe     4 -0.3029020000000 -0.6062740000000 -0.2163830000000 1.0   1.18
END
