TITL LFSO-Li3Fe3S5O-200929-030807-b607b6 -0.0649 188.665450 -5.14484194E+003 -0.453404E-01 0.538525E-01 12 (P-1) n - 1
REM
REM Run started: Wed, 30 Sep 2020 04:45:42 +0100 in /lustre/scratch/uccabz1/launch_tmp/launcher_2020-09-29-02-08-05-474020
REM CASTEP 20.1 from code version af48c487+ pr-geom-scf-spinfix Tue Jun 2 15:39:59 2020 +0100
REM Functional Perdew Burke Ernzerhof Relativity Koelling-Harmon Dispersion off
REM Cut-off 340.0000 eV Grid scale 1.7500 Gmax 16.5316 1/A FBSC none
REM MP grid 5 5 1 Offset 0.000 0.000 0.000 No. kpts 13 Spacing 0.07
REM Total runtime: 89042.1 s
REM Overall efficiency: 92.6154 %
REM
REM
REM
REM compiler GCC version 4.9.2
REM options -cpp -iprefix /lustre/shared/ucl/apps/gcc/4.9.2/bin/../lib/gcc/x86_64-unknown-linux-gnu/4.9.2/ -mtune=corei7 -march=x86-64 -g -Og
REM COMMAND_LINE
REM seed 1210598763 1059367576 144519062 911902660 566772786 766340867 1701967135 -688553855 -672918398 -810030191 -279400076 -1559474255
REM
REM S 3|1.8|5|6|7|30:31:32(qc=5)
REM O 2|1.5|12|13|15|20:21(qc=5)
REM Li 1|1.3|8|9|10|10U:20(qc=5)
REM Fe 3|2.2|2.0|1.0|8|9|10|40:41:32(qc=5)
REM 
CELL 1.54180    3.33790    3.87134   16.32343   74.11653   86.91415   68.61641
LATT -1
SFAC Li O  S  Fe 
Li     1  0.1153620000000 -0.1364520000000  0.0832140000000 1.0   0.00
Li     1 -0.1153620000000  0.1364520000000 -0.0832140000000 1.0   0.00
Li     1 -1.0000000000000 -0.5000000000000 -0.5000000000000 1.0   0.00
O      2 -0.5000000000000  0.0000000000000  0.0000000000000 1.0   0.00
S      3  0.2826780000000 -0.3214030000000  0.2420370000000 1.0   0.00
S      3 -0.2826780000000  0.3214030000000 -0.2420370000000 1.0   0.00
S      3  0.0199530000000 -0.1076040000000 -0.4083910000000 1.0  -0.00
S      3 -0.0199530000000  0.1076040000000  0.4083910000000 1.0  -0.00
S      3  0.0000000000000 -0.5000000000000  0.0000000000000 1.0  -0.00
Fe     4 -0.0486690000000  0.2712710000000  0.2722660000000 1.0  -0.01
Fe     4  0.0486690000000 -0.2712710000000 -0.2722660000000 1.0  -0.01
Fe     4 -0.5000000000000  0.0000000000000 -0.5000000000000 1.0  -0.03
END
