TITL LFSO-Li2Fe2S2O-200913-121113-bdc8e8 -0.0202 314.360366 -9.51580620E+003 0.774363E-01 0.919955E-01 21 (R3) n - 1
REM
REM Run started: Sun, 13 Sep 2020 23:24:21 +0100 in /lustre/scratch/uccabz1/launch_tmp/launcher_2020-09-13-11-11-11-850191
REM CASTEP 20.1 from code version af48c487+ pr-geom-scf-spinfix Tue Jun 2 15:39:59 2020 +0100
REM Functional Perdew Burke Ernzerhof Relativity Koelling-Harmon Dispersion off
REM Cut-off 340.0000 eV Grid scale 1.7500 Gmax 16.5316 1/A FBSC none
REM MP grid 3 3 3 Offset 0.000 0.000 0.000 No. kpts 6 Spacing 0.07
REM Total runtime: 40571.8 s
REM Overall efficiency: 97.75 %
REM
REM
REM
REM compiler GCC version 4.9.2
REM options -cpp -iprefix /lustre/shared/ucl/apps/gcc/4.9.2/bin/../lib/gcc/x86_64-unknown-linux-gnu/4.9.2/ -mtune=corei7 -march=x86-64 -g -Og
REM COMMAND_LINE
REM seed 1557739828 -1039255707 966418250 1623247334 -332241567 2055468413 -2091739540 811143343 801233311 477345821 -210388725 -1583285882
REM
REM S 3|1.8|5|6|7|30:31:32(qc=5)
REM O 2|1.5|12|13|15|20:21(qc=5)
REM Li 1|1.3|8|9|10|10U:20(qc=5)
REM Fe 3|2.2|2.0|1.0|8|9|10|40:41:32(qc=5)
REM 
CELL 1.54180    6.85424    7.62751    7.62751  111.43301  107.43001  107.43001
LATT -1
SFAC Li O  S  Fe 
Li     1  0.4817630000000  0.1745210000000 -0.1438420000000 1.0   0.00
Li     1  0.3072420000000 -0.3183630000000 -0.1745210000000 1.0   0.00
Li     1 -0.3743950000000  0.1438420000000  0.3183630000000 1.0   0.00
Li     1 -0.2869040000000 -0.1691140000000  0.4309260000000 1.0   0.00
Li     1 -0.1177900000000  0.6000400000000  0.1691140000000 1.0   0.00
Li     1 -0.7178300000000 -0.4309260000000 -0.6000400000000 1.0   0.00
O      2  0.3583400000000  0.4360830000000 -0.1823070000000 1.0   0.00
O      2 -0.0777430000000  0.3816100000000 -0.4360830000000 1.0   0.00
O      2 -0.4593530000000  0.1823070000000 -0.3816100000000 1.0   0.00
S      3 -0.0737980000000 -0.0277080000000  0.2620030000000 1.0   0.00
S      3 -0.0460900000000  0.2897120000000  0.0277080000000 1.0   0.00
S      3 -0.3358010000000 -0.2620030000000 -0.2897120000000 1.0   0.00
S      3  0.1367350000000 -0.1967060000000  0.5899530000000 1.0   0.00
S      3  0.3334410000000 -0.2133410000000  0.1967060000000 1.0   0.00
S      3 -0.4532180000000 -0.5899530000000  0.2133410000000 1.0   0.00
Fe     4  0.2445250000000 -0.0221130000000  0.4341260000000 1.0   0.02
Fe     4  0.2666380000000  0.4562390000000  0.0221130000000 1.0   0.02
Fe     4 -0.1896020000000 -0.4341260000000 -0.4562390000000 1.0   0.02
Fe     4  0.0889290000000  0.2371150000000  0.5755740000000 1.0   0.02
Fe     4 -0.1481860000000  0.3384590000000 -0.2371150000000 1.0   0.02
Fe     4 -0.4866450000000 -0.5755740000000 -0.3384590000000 1.0   0.02
END
