TITL LFSO-Li3Fe3SO5-201001-211752-1a665a 0.0328 166.184848 -5.68223069E+003 9.00191 9.14926 12 (P1) n - 1
REM
REM Run started: Thu, 01 Oct 2020 22:44:40 +0100 in /scratch/scratch/mmm0366/launch_tmp/launcher_2020-10-01-20-17-50-418288
REM CASTEP 19.11| from code version Version unavailable
REM Functional Perdew Burke Ernzerhof Relativity Koelling-Harmon Dispersion off
REM Cut-off 340.0000 eV Grid scale 1.7500 Gmax 16.5316 1/A FBSC none
REM MP grid 4 4 4 Offset 0.000 0.000 0.000 No. kpts 12 Spacing 0.07
REM Total runtime: 5444.95 s
REM Overall efficiency: 95 %
REM
REM
REM
REM compiler GCC version 4.9.2
REM options -cpp -iprefix /scratch/UCL/applications/gcc/4.9.2/bin/../lib/gcc/x86_64-unknown-linux-gnu/4.9.2/ -mtune=corei7 -march=x86-64 -g -O2
REM COMMAND_LINE
REM seed 1474598169 1355836247 -55320982 1763793081 1706543773 -205846146 -1910481056 1413715149 227930275 -1227616026 -509667215 848530954
REM
REM S 3|1.8|5|6|7|30:31:32(qc=5)
REM O 2|1.5|12|13|15|20:21(qc=5)
REM Li 1|1.3|8|9|10|10U:20(qc=5)
REM Fe 3|2.2|2.0|1.0|8|9|10|40:41:32(qc=5)
REM 
CELL 1.54180    6.95268    6.95268    6.95268   47.32528   47.32528   47.32528
LATT -1
SFAC Li O  S  Fe 
Li     1  0.0641050000000 -0.3566780000000 -0.4610010000000 1.0   0.02
Li     1 -0.4610010000000  0.0641050000000 -0.3566780000000 1.0   0.02
Li     1 -0.3566780000000 -0.4610010000000  0.0641050000000 1.0   0.02
O      2 -0.0028660000000  0.4911080000000 -0.0520060000000 1.0   0.40
O      2 -0.0520060000000 -0.0028660000000  0.4911080000000 1.0   0.40
O      2  0.4911080000000 -0.0520060000000 -0.0028660000000 1.0   0.40
O      2 -0.0706590000000 -0.0706590000000 -0.0706590000000 1.0   0.01
O      2  0.4798760000000  0.4798760000000  0.4798760000000 1.0   0.06
S      3 -0.3646290000000 -0.3646290000000 -0.3646290000000 1.0   0.04
Fe     4  0.2093030000000 -0.3156320000000  0.7306620000000 1.0   2.54
Fe     4  0.7306620000000  0.2093030000000 -0.3156320000000 1.0   2.54
Fe     4 -0.3156320000000  0.7306620000000  0.2093030000000 1.0   2.54
END
