TITL LFSO-Li2Fe2SO2-200913-000949-31efc3 0.0411 195.613743 -6.61235778E+003 13.9654 14.2718 14 (P3) n - 1
REM
REM Run started: Sun, 13 Sep 2020 03:41:11 +0100 in /lustre/scratch/uccabz1/launch_tmp/launcher_2020-09-12-23-09-47-673146
REM CASTEP 20.1 from code version af48c487+ pr-geom-scf-spinfix Tue Jun 2 15:39:59 2020 +0100
REM Functional Perdew Burke Ernzerhof Relativity Koelling-Harmon Dispersion off
REM Cut-off 340.0000 eV Grid scale 1.7500 Gmax 16.5316 1/A FBSC none
REM MP grid 3 3 3 Offset 0.000 0.000 0.000 No. kpts 8 Spacing 0.07
REM Total runtime: 12822 s
REM Overall efficiency: 97 %
REM
REM
REM
REM compiler GCC version 4.9.2
REM options -cpp -iprefix /lustre/shared/ucl/apps/gcc/4.9.2/bin/../lib/gcc/x86_64-unknown-linux-gnu/4.9.2/ -mtune=corei7 -march=x86-64 -g -Og
REM COMMAND_LINE
REM seed 1897485636 -753860049 -1651155731 1846224799 -1666078632 -1084493171 2004751471 -2012572653 -177801951 -1970354688 -40104912 -660923024
REM
REM S 3|1.8|5|6|7|30:31:32(qc=5)
REM O 2|1.5|12|13|15|20:21(qc=5)
REM Li 1|1.3|8|9|10|10U:20(qc=5)
REM Fe 3|2.2|2.0|1.0|8|9|10|40:41:32(qc=5)
REM 
CELL 1.54180    6.04888    6.04888    6.17332   90.00000   90.00000  120.00000
LATT -1
SFAC Li O  S  Fe 
Li     1 -0.4450670000000  0.0005400000000 -0.0714870000000 1.0  -0.01
Li     1  0.4456070000000  0.4450670000000 -0.0714870000000 1.0  -0.01
Li     1 -0.0005400000000 -0.4456070000000 -0.0714870000000 1.0  -0.01
Li     1 -0.3333330000000  0.3333330000000  0.2028130000000 1.0  -0.07
O      2 -0.2579400000000 -0.3488120000000  0.1040360000000 1.0   0.27
O      2 -0.0908720000000  0.2579400000000  0.1040360000000 1.0   0.27
O      2  0.3488120000000  0.0908720000000  0.1040360000000 1.0   0.27
O      2  0.3333330000000 -0.3333330000000 -0.2025920000000 1.0   0.05
S      3  0.3333330000000 -0.3333330000000  0.5284700000000 1.0   0.06
S      3 -0.3333330000000  0.3333330000000 -0.4085530000000 1.0   0.13
Fe     4 -0.2521080000000 -0.2671140000000  0.4182730000000 1.0   3.27
Fe     4 -0.0150060000000  0.2521080000000  0.4182730000000 1.0   3.27
Fe     4  0.2671140000000  0.0150060000000  0.4182730000000 1.0   3.27
Fe     4 -0.0000000000000  0.0000000000000  0.1202010000000 1.0   3.20
END
