TITL LFSO-Li4Fe2S2O3-200911-112443-2b15aa -0.0222 191.999966 -4.44655685E+003 -7.99913 8.27681 11 (R3) n - 1
REM
REM Run started: Fri, 11 Sep 2020 15:48:26 +0100 in /lustre/scratch/uccabz1/launch_tmp/launcher_2020-09-11-10-24-42-307570
REM CASTEP 20.1 from code version af48c487+ pr-geom-scf-spinfix Tue Jun 2 15:39:59 2020 +0100
REM Functional Perdew Burke Ernzerhof Relativity Koelling-Harmon Dispersion off
REM Cut-off 340.0000 eV Grid scale 1.7500 Gmax 16.5316 1/A FBSC none
REM MP grid 3 3 3 Offset 0.000 0.000 0.000 No. kpts 6 Spacing 0.07
REM Total runtime: 16223.9 s
REM Overall efficiency: 97 %
REM
REM
REM
REM compiler GCC version 4.9.2
REM options -cpp -iprefix /lustre/shared/ucl/apps/gcc/4.9.2/bin/../lib/gcc/x86_64-unknown-linux-gnu/4.9.2/ -mtune=corei7 -march=x86-64 -g -Og
REM COMMAND_LINE
REM seed 338637607 1848635592 -569618626 -90886346 1196280690 -1558618552 226712242 1318038243 1686841611 8561438 1740495625 1939452889
REM
REM S 3|1.8|5|6|7|30:31:32(qc=5)
REM O 2|1.5|12|13|15|20:21(qc=5)
REM Li 1|1.3|8|9|10|10U:20(qc=5)
REM Fe 3|2.2|2.0|1.0|8|9|10|40:41:32(qc=5)
REM 
CELL 1.54180    7.39153    7.39153    7.39153   46.20454   46.20454   46.20454
LATT -1
SFAC Li O  S  Fe 
Li     1  0.1800750000000  0.1938910000000 -0.2477520000000 1.0   0.01
Li     1  0.1938910000000 -0.2477520000000  0.1800750000000 1.0   0.01
Li     1 -0.2477520000000  0.1800750000000  0.1938910000000 1.0   0.01
Li     1  0.1497360000000  0.1497360000000  0.1497360000000 1.0  -0.01
O      2 -0.0665760000000 -0.0847390000000  0.4394290000000 1.0  -0.32
O      2 -0.0847390000000  0.4394290000000 -0.0665760000000 1.0  -0.32
O      2  0.4394290000000 -0.0665760000000 -0.0847390000000 1.0  -0.32
S      3 -0.3979070000000 -0.3979070000000 -0.3979070000000 1.0  -0.02
S      3 -0.0640010000000 -0.0640010000000 -0.0640010000000 1.0  -0.01
Fe     4 -0.1746990000000 -0.1746990000000 -0.1746990000000 1.0  -3.71
Fe     4 -0.2930180000000 -0.2930180000000 -0.2930180000000 1.0  -3.30
END
