TITL LFSO-Li4Fe2S3O-200911-024921-e6eab4 0.0537 315.828102 -7.75408481E+003 15.8922 16.0868 20 (Pmn21) n - 1
REM
REM Run started: Fri, 11 Sep 2020 06:41:04 +0100 in /lustre/scratch/uccabz1/launch_tmp/launcher_2020-09-11-01-49-19-831457
REM CASTEP 20.1 from code version af48c487+ pr-geom-scf-spinfix Tue Jun 2 15:39:59 2020 +0100
REM Functional Perdew Burke Ernzerhof Relativity Koelling-Harmon Dispersion off
REM Cut-off 340.0000 eV Grid scale 1.7500 Gmax 16.5316 1/A FBSC none
REM MP grid 5 2 2 Offset 0.000 0.000 0.000 No. kpts 3 Spacing 0.07
REM Total runtime: 16088.5 s
REM Overall efficiency: 85.8333 %
REM
REM
REM
REM compiler GCC version 4.9.2
REM options -cpp -iprefix /lustre/shared/ucl/apps/gcc/4.9.2/bin/../lib/gcc/x86_64-unknown-linux-gnu/4.9.2/ -mtune=corei7 -march=x86-64 -g -Og
REM COMMAND_LINE
REM seed -1096577820 1528202229 -875192517 -734953205 -1090876402 837250678 -1046066300 -1661285202 -1411229108 265435105 142405281 562131831
REM
REM S 3|1.8|5|6|7|30:31:32(qc=5)
REM O 2|1.5|12|13|15|20:21(qc=5)
REM Li 1|1.3|8|9|10|10U:20(qc=5)
REM Fe 3|2.2|2.0|1.0|8|9|10|40:41:32(qc=5)
REM 
CELL 1.54180    3.45711    8.26518   11.05312   90.00000   90.00000   90.00000
LATT -1
SFAC Li O  S  Fe 
Li     1  0.0368790000000  0.0362410000000  0.1421720000000 1.0   0.01
Li     1 -0.4631210000000 -0.0362410000000  0.3578280000000 1.0   0.01
Li     1 -0.4631210000000 -0.0362410000000 -0.3578280000000 1.0   0.01
Li     1  0.0368790000000  0.0362410000000 -0.1421720000000 1.0   0.01
Li     1  0.1274120000000 -0.5556350000000 -0.1179840000000 1.0  -0.00
Li     1 -0.3725880000000  0.5556350000000 -0.3820160000000 1.0  -0.00
Li     1 -0.3725880000000  0.5556350000000  0.3820160000000 1.0  -0.00
Li     1  0.1274120000000 -0.5556350000000  0.1179840000000 1.0  -0.00
O      2 -0.3833620000000 -0.4605600000000 -0.0000000000000 1.0   0.30
O      2  0.1166380000000  0.4605600000000 -0.5000000000000 1.0   0.30
S      3  0.1104410000000 -0.2629760000000  0.2552130000000 1.0   0.24
S      3 -0.3895590000000  0.2629760000000  0.2447870000000 1.0   0.24
S      3 -0.3895590000000  0.2629760000000 -0.2447870000000 1.0   0.24
S      3  0.1104410000000 -0.2629760000000 -0.2552130000000 1.0   0.24
S      3  0.5571880000000 -0.0256920000000 -0.0000000000000 1.0   0.25
S      3  0.0571880000000  0.0256920000000 -0.5000000000000 1.0   0.25
Fe     4  0.1137400000000  0.2671290000000 -0.3904940000000 1.0   3.45
Fe     4 -0.3862600000000 -0.2671290000000 -0.1095060000000 1.0   3.45
Fe     4 -0.3862600000000 -0.2671290000000  0.1095060000000 1.0   3.45
Fe     4  0.1137400000000  0.2671290000000  0.3904940000000 1.0   3.45
END
