TITL LFSO-Li4FeSO2-200910-072115-ef77e1 0.1143 472.840099 -8.52542111E+003 6.67485 7.94796 24 (Cm) n - 1
REM
REM Run started: Sat, 12 Sep 2020 09:27:59 +0100 in /lustre/scratch/uccabz1/launch_tmp/launcher_2020-09-12-06-23-53-213007
REM CASTEP 20.1 from code version af48c487+ pr-geom-scf-spinfix Tue Jun 2 15:39:59 2020 +0100
REM Functional Perdew Burke Ernzerhof Relativity Koelling-Harmon Dispersion off
REM Cut-off 340.0000 eV Grid scale 1.7500 Gmax 16.5316 1/A FBSC none
REM MP grid 6 2 2 Offset 0.000 0.000 0.000 No. kpts 9 Spacing 0.07
REM Total runtime: 187057 s
REM Overall efficiency: 98.75 %
REM
REM
REM
REM compiler GCC version 4.9.2
REM options -cpp -iprefix /lustre/shared/ucl/apps/gcc/4.9.2/bin/../lib/gcc/x86_64-unknown-linux-gnu/4.9.2/ -mtune=corei7 -march=x86-64 -g -Og
REM COMMAND_LINE
REM seed 422126849 773899617 1444574323 507400540 1749377109 -725438540 -343147133 -1050409498 90459847 841327674 436838573 -1436776326
REM
REM S 3|1.8|5|6|7|30:31:32(qc=5)
REM O 2|1.5|12|13|15|20:21(qc=5)
REM Li 1|1.3|8|9|10|10U:20(qc=5)
REM Fe 3|2.2|2.0|1.0|8|9|10|40:41:32(qc=5)
REM 
CELL 1.54180    2.87935   17.97957   17.97957  143.40415   99.45750   99.45750
LATT -1
SFAC Li O  S  Fe 
Li     1  0.2575220000000 -0.1436220000000  0.3280120000000 1.0   0.01
Li     1  0.2575220000000  0.3280120000000 -0.1436220000000 1.0   0.01
Li     1 -0.4599480000000  0.1731430000000 -0.2121410000000 1.0  -0.06
Li     1 -0.4599480000000 -0.2121410000000  0.1731430000000 1.0  -0.06
Li     1 -0.5511640000000  0.5762560000000  0.2887770000000 1.0  -0.02
Li     1 -0.5511640000000  0.2887770000000  0.5762560000000 1.0  -0.02
Li     1  0.0653420000000 -0.0453700000000 -0.4488720000000 1.0   0.01
Li     1  0.0653420000000 -0.4488720000000 -0.0453700000000 1.0   0.01
Li     1 -0.5044680000000  0.2876000000000  0.1116550000000 1.0  -0.08
Li     1 -0.5044680000000  0.1116550000000  0.2876000000000 1.0  -0.08
Li     1  0.3181610000000 -0.3916600000000  0.1340600000000 1.0  -0.02
Li     1  0.3181610000000  0.1340600000000 -0.3916600000000 1.0  -0.02
O      2  0.0695980000000  0.3681070000000  0.1147040000000 1.0   0.05
O      2  0.0695980000000  0.1147040000000  0.3681070000000 1.0   0.05
O      2 -0.0596210000000 -0.0218030000000  0.3802310000000 1.0   0.03
O      2 -0.0596210000000  0.3802310000000 -0.0218030000000 1.0   0.03
O      2 -0.1497530000000  0.1079530000000 -0.3298470000000 1.0   0.00
O      2 -0.1497530000000 -0.3298470000000  0.1079530000000 1.0   0.00
S      3  0.1638710000000  0.3539730000000 -0.2651910000000 1.0  -0.18
S      3  0.1638710000000 -0.2651910000000  0.3539730000000 1.0  -0.18
S      3  0.1442520000000 -0.0078670000000 -0.0078670000000 1.0   0.18
Fe     4 -0.4991550000000  0.0435140000000  0.3686570000000 1.0   1.99
Fe     4 -0.4991550000000  0.3686570000000  0.0435140000000 1.0   1.99
Fe     4  0.9885740000000  0.1589100000000  0.1589100000000 1.0   3.01
END
