TITL LFSO-LiFe3S3O2-200909-155434-107397 0.0295 408.370819 -9.15788600E+003 6.34949 9.19418 18 (P2) n - 1
REM
REM Run started: Thu, 10 Sep 2020 11:51:14 +0100 in /lustre/scratch/uccabz1/launch_tmp/launcher_2020-09-09-14-54-31-976783
REM CASTEP 20.1 from code version af48c487+ pr-geom-scf-spinfix Tue Jun 2 15:39:59 2020 +0100
REM Functional Perdew Burke Ernzerhof Relativity Koelling-Harmon Dispersion off
REM Cut-off 340.0000 eV Grid scale 1.7500 Gmax 16.5316 1/A FBSC none
REM MP grid 5 2 1 Offset 0.000 0.000 0.000 No. kpts 3 Spacing 0.07
REM Total runtime: 78844.3 s
REM Overall efficiency: 92.6667 %
REM
REM
REM
REM compiler GCC version 4.9.2
REM options -cpp -iprefix /lustre/shared/ucl/apps/gcc/4.9.2/bin/../lib/gcc/x86_64-unknown-linux-gnu/4.9.2/ -mtune=corei7 -march=x86-64 -g -Og
REM COMMAND_LINE
REM seed -1412303839 1698371179 -257971036 1587146008 -572831231 844295697 1584794143 1395402041 190567293 1853258482 86330016 -1892796767
REM
REM S 3|1.8|5|6|7|30:31:32(qc=5)
REM O 2|1.5|12|13|15|20:21(qc=5)
REM Li 1|1.3|8|9|10|10U:20(qc=5)
REM Fe 3|2.2|2.0|1.0|8|9|10|40:41:32(qc=5)
REM 
CELL 1.54180    3.13409    7.61376   18.13153   90.00000  109.28918   90.00000
LATT -1
SFAC Li O  S  Fe 
Li     1 -0.1446400000000  0.4674090000000  0.1508070000000 1.0  -0.01
Li     1  0.1446400000000  0.4674090000000 -0.1508070000000 1.0  -0.01
O      2  0.0732340000000  0.2274800000000 -0.1893090000000 1.0   0.15
O      2 -0.0732340000000  0.2274800000000  0.1893090000000 1.0   0.15
O      2 -0.4527650000000 -0.4789560000000 -0.2029020000000 1.0   0.15
O      2  0.4527650000000 -0.4789560000000  0.2029020000000 1.0   0.15
S      3 -0.1653790000000 -0.1261360000000  0.1440660000000 1.0   0.04
S      3  0.1653790000000 -0.1261360000000 -0.1440660000000 1.0   0.04
S      3  0.2119070000000  0.2672180000000  0.3411020000000 1.0   0.02
S      3 -0.2119070000000  0.2672180000000 -0.3411020000000 1.0   0.02
S      3  0.3214670000000 -0.1180160000000 -0.3239500000000 1.0   0.04
S      3 -0.3214670000000 -0.1180160000000  0.3239500000000 1.0   0.04
Fe     4  0.0566750000000  0.0260560000000  0.2590910000000 1.0  -0.64
Fe     4 -0.0566750000000  0.0260560000000 -0.2590910000000 1.0  -0.64
Fe     4 -0.4597610000000  0.2959840000000  0.2501670000000 1.0   1.82
Fe     4  0.4597610000000  0.2959840000000 -0.2501670000000 1.0   1.82
Fe     4 -0.5365660000000 -0.2426990000000  0.2115590000000 1.0   1.60
Fe     4  0.5365660000000 -0.2426990000000 -0.2115590000000 1.0   1.60
END
