TITL LFSO-Li2Fe3S2O2-200921-035411-de31cd -0.1512 272.435346 -8.94919574E+003 -23.7801 23.9081 18 (Pba2) n - 1
REM
REM Run started: Mon, 21 Sep 2020 09:09:41 +0100 in /lustre/scratch/uccabz1/launch_tmp/launcher_2020-09-21-07-57-10-776359
REM CASTEP 20.1 from code version af48c487+ pr-geom-scf-spinfix Tue Jun 2 15:39:59 2020 +0100
REM Functional Perdew Burke Ernzerhof Relativity Koelling-Harmon Dispersion off
REM Cut-off 340.0000 eV Grid scale 1.7500 Gmax 16.5316 1/A FBSC none
REM MP grid 3 3 2 Offset 0.000 0.000 0.000 No. kpts 4 Spacing 0.07
REM Total runtime: 18514.9 s
REM Overall efficiency: 96.9 %
REM
REM
REM
REM compiler GCC version 4.9.2
REM options -cpp -iprefix /lustre/shared/ucl/apps/gcc/4.9.2/bin/../lib/gcc/x86_64-unknown-linux-gnu/4.9.2/ -mtune=corei7 -march=x86-64 -g -Og
REM COMMAND_LINE
REM seed -1440260530 -841385287 143761626 -1764510714 -61610787 335070023 1440442669 -922350750 -21728537 444784532 -430204021 -87061576
REM
REM S 3|1.8|5|6|7|30:31:32(qc=5)
REM O 2|1.5|12|13|15|20:21(qc=5)
REM Li 1|1.3|8|9|10|10U:20(qc=5)
REM Fe 3|2.2|2.0|1.0|8|9|10|40:41:32(qc=5)
REM 
CELL 1.54180    5.95498    5.50487    8.31067   90.00000   90.00000   90.00000
LATT -1
SFAC Li O  S  Fe 
Li     1  0.4225270000000 -0.0188790000000 -0.1869070000000 1.0   0.04
Li     1 -0.4225270000000 -0.0188790000000  0.1869070000000 1.0   0.04
Li     1 -0.0774730000000 -0.0188790000000 -0.3130930000000 1.0   0.04
Li     1  0.0774730000000 -0.0188790000000  0.3130930000000 1.0   0.04
O      2  0.3613230000000 -0.1800490000000  0.3287090000000 1.0  -0.36
O      2 -0.3613230000000 -0.1800490000000 -0.3287090000000 1.0  -0.36
O      2 -0.1386770000000 -0.1800490000000  0.1712910000000 1.0  -0.36
O      2  0.1386770000000 -0.1800490000000 -0.1712910000000 1.0  -0.36
S      3 -0.2545480000000  0.2964800000000  0.3932460000000 1.0  -0.35
S      3  0.2545480000000  0.2964800000000 -0.3932460000000 1.0  -0.35
S      3  0.2454520000000  0.2964800000000  0.1067540000000 1.0  -0.35
S      3 -0.2454520000000  0.2964800000000 -0.1067540000000 1.0  -0.35
Fe     4 -0.1153830000000 -0.5216170000000  0.1419330000000 1.0  -3.50
Fe     4  0.1153830000000 -0.5216170000000 -0.1419330000000 1.0  -3.50
Fe     4 -0.6153830000000 -0.5216170000000  0.3580670000000 1.0  -3.50
Fe     4  0.6153830000000 -0.5216170000000 -0.3580670000000 1.0  -3.50
Fe     4 -0.0000000000000 -0.0039080000000  0.0000000000000 1.0  -3.56
Fe     4  0.5000000000000 -0.0039080000000  0.5000000000000 1.0  -3.56
END
