TITL LFSO-Li4Fe2S3O2-200911-083417-ff6d05 -0.0652 202.552787 -4.31253977E+003 -7.81076 8.19974 11 (R3m) n - 1
REM
REM Run started: Fri, 11 Sep 2020 15:52:21 +0100 in /lustre/scratch/uccabz1/launch_tmp/launcher_2020-09-11-07-34-15-728327
REM CASTEP 20.1 from code version af48c487+ pr-geom-scf-spinfix Tue Jun 2 15:39:59 2020 +0100
REM Functional Perdew Burke Ernzerhof Relativity Koelling-Harmon Dispersion off
REM Cut-off 340.0000 eV Grid scale 1.7500 Gmax 16.5316 1/A FBSC none
REM MP grid 3 3 3 Offset 0.000 0.000 0.000 No. kpts 6 Spacing 0.07
REM Total runtime: 27971.5 s
REM Overall efficiency: 96.8462 %
REM
REM
REM
REM compiler GCC version 4.9.2
REM options -cpp -iprefix /lustre/shared/ucl/apps/gcc/4.9.2/bin/../lib/gcc/x86_64-unknown-linux-gnu/4.9.2/ -mtune=corei7 -march=x86-64 -g -Og
REM COMMAND_LINE
REM seed -1557099358 1258349236 -504380952 435705674 1912777462 -691740874 -1064736053 -1032760461 -1371066009 1439368842 -1080508877 -1205330937
REM
REM S 3|1.8|5|6|7|30:31:32(qc=5)
REM O 2|1.5|12|13|15|20:21(qc=5)
REM Li 1|1.3|8|9|10|10U:20(qc=5)
REM Fe 3|2.2|2.0|1.0|8|9|10|40:41:32(qc=5)
REM 
CELL 1.54180    6.01391    6.01391    6.01391   76.79158   76.79158   76.79158
LATT -1
SFAC Li O  S  Fe 
Li     1 -0.3026810000000  0.3650440000000  0.3650440000000 1.0   0.01
Li     1  0.3650440000000 -0.3026810000000  0.3650440000000 1.0   0.01
Li     1  0.3650440000000  0.3650440000000 -0.3026810000000 1.0   0.01
Li     1 -0.2976340000000 -0.2976340000000 -0.2976340000000 1.0  -0.07
O      2  0.3664210000000  0.3664210000000  0.3664210000000 1.0  -0.27
O      2 -0.4350590000000 -0.4350590000000 -0.4350590000000 1.0   0.14
S      3  0.4390490000000 -0.0200530000000 -0.0200530000000 1.0  -0.34
S      3 -0.0200530000000  0.4390490000000 -0.0200530000000 1.0  -0.34
S      3 -0.0200530000000 -0.0200530000000  0.4390490000000 1.0  -0.34
Fe     4  0.2293500000000  0.2293500000000  0.2293500000000 1.0  -3.11
Fe     4  0.0395790000000  0.0395790000000  0.0395790000000 1.0  -3.50
END
