TITL LFSO-Li3Fe3S4O2-201002-132952-c64cdb 0.0385 451.109430 -1.05624493E+004 -17.8870 18.6686 24 (Pmc21) n - 1
REM
REM Run started: Fri, 02 Oct 2020 16:57:00 +0100 in /lustre/scratch/uccabz1/launch_tmp/launcher_2020-10-02-12-29-50-963313
REM CASTEP 20.1 from code version af48c487+ pr-geom-scf-spinfix Tue Jun 2 15:39:59 2020 +0100
REM Functional Perdew Burke Ernzerhof Relativity Koelling-Harmon Dispersion off
REM Cut-off 340.0000 eV Grid scale 1.7500 Gmax 16.5316 1/A FBSC none
REM MP grid 3 2 2 Offset 0.000 0.000 0.000 No. kpts 2 Spacing 0.07
REM Total runtime: 12474.1 s
REM Overall efficiency: 76.7778 %
REM
REM
REM
REM compiler GCC version 4.9.2
REM options -cpp -iprefix /lustre/shared/ucl/apps/gcc/4.9.2/bin/../lib/gcc/x86_64-unknown-linux-gnu/4.9.2/ -mtune=corei7 -march=x86-64 -g -Og
REM COMMAND_LINE
REM seed 1910864401 -108397540 -287407537 -1001322779 718504151 376488964 908951023 -1477739890 1780371297 -1285807191 1844638575 -1770956211
REM
REM S 3|1.8|5|6|7|30:31:32(qc=5)
REM O 2|1.5|12|13|15|20:21(qc=5)
REM Li 1|1.3|8|9|10|10U:20(qc=5)
REM Fe 3|2.2|2.0|1.0|8|9|10|40:41:32(qc=5)
REM 
CELL 1.54180    6.78658    8.57677    7.75009   90.00000   90.00000   90.00000
LATT -1
SFAC Li O  S  Fe 
Li     1  0.0174370000000 -0.0926930000000  0.2630930000000 1.0  -0.01
Li     1 -0.0174370000000  0.4073070000000 -0.2630930000000 1.0  -0.01
Li     1 -0.0174370000000  0.4073070000000  0.2630930000000 1.0  -0.01
Li     1  0.0174370000000 -0.0926930000000 -0.2630930000000 1.0  -0.01
Li     1  0.1743960000000  0.1149030000000  0.0000000000000 1.0   0.04
Li     1 -0.1743960000000 -0.3850970000000  0.0000000000000 1.0   0.04
O      2  0.2453280000000  0.0210780000000  0.2096860000000 1.0  -0.44
O      2 -0.2453280000000  0.5210780000000 -0.2096860000000 1.0  -0.44
O      2 -0.2453280000000  0.5210780000000  0.2096860000000 1.0  -0.44
O      2  0.2453280000000  0.0210780000000 -0.2096860000000 1.0  -0.44
S      3 -0.1907030000000  0.1527160000000 -0.2100890000000 1.0  -0.07
S      3  0.1907030000000 -0.3472840000000  0.2100890000000 1.0  -0.07
S      3  0.1907030000000 -0.3472840000000 -0.2100890000000 1.0  -0.07
S      3 -0.1907030000000  0.1527160000000  0.2100890000000 1.0  -0.07
S      3  0.3624500000000  0.3383860000000  0.2349880000000 1.0  -0.00
S      3 -0.3624500000000 -0.1616140000000 -0.2349880000000 1.0  -0.00
S      3 -0.3624500000000 -0.1616140000000  0.2349880000000 1.0  -0.00
S      3  0.3624500000000  0.3383860000000 -0.2349880000000 1.0  -0.00
Fe     4 -0.4848160000000 -0.4139750000000  0.2186130000000 1.0  -2.72
Fe     4  0.4848160000000  0.0860250000000 -0.2186130000000 1.0  -2.72
Fe     4  0.4848160000000  0.0860250000000  0.2186130000000 1.0  -2.72
Fe     4 -0.4848160000000 -0.4139750000000 -0.2186130000000 1.0  -2.72
Fe     4  0.7194230000000 -0.0118600000000  0.0000000000000 1.0  -2.49
Fe     4 -0.7194230000000 -0.5118600000000  0.0000000000000 1.0  -2.49
END
