TITL LFSO-LiFe3S3O2-200909-135812-9e4956 0.0821 319.352999 -9.15380427E+003 -5.04389 5.78961 18 (Cm) n - 1
REM
REM Run started: Wed, 09 Sep 2020 21:10:24 +0100 in /lustre/scratch/uccabz1/launch_tmp/launcher_2020-09-09-12-58-09-847350
REM CASTEP 20.1 from code version af48c487+ pr-geom-scf-spinfix Tue Jun 2 15:39:59 2020 +0100
REM Functional Perdew Burke Ernzerhof Relativity Koelling-Harmon Dispersion off
REM Cut-off 340.0000 eV Grid scale 1.7500 Gmax 16.5316 1/A FBSC none
REM MP grid 3 3 2 Offset 0.000 0.000 0.000 No. kpts 6 Spacing 0.07
REM Total runtime: 26092.7 s
REM Overall efficiency: 97.5 %
REM
REM
REM
REM compiler GCC version 4.9.2
REM options -cpp -iprefix /lustre/shared/ucl/apps/gcc/4.9.2/bin/../lib/gcc/x86_64-unknown-linux-gnu/4.9.2/ -mtune=corei7 -march=x86-64 -g -Og
REM COMMAND_LINE
REM seed -957614089 1512166642 -206492622 -224533059 -437456582 -2146138426 -60929434 1854701507 -1271733204 -12707518 848121545 88716401
REM
REM S 3|1.8|5|6|7|30:31:32(qc=5)
REM O 2|1.5|12|13|15|20:21(qc=5)
REM Li 1|1.3|8|9|10|10U:20(qc=5)
REM Fe 3|2.2|2.0|1.0|8|9|10|40:41:32(qc=5)
REM 
CELL 1.54180    6.58974    6.70406    8.66054  104.38990   90.00000  119.43751
LATT -1
SFAC Li O  S  Fe 
Li     1  0.3999930000000  0.3077860000000  0.0995640000000 1.0  -0.01
Li     1 -0.0922070000000  0.3077860000000  0.0995640000000 1.0  -0.01
O      2  0.3614260000000  0.2075190000000 -0.1249160000000 1.0  -0.04
O      2 -0.1539070000000  0.2075190000000 -0.1249160000000 1.0  -0.04
O      2  0.0294310000000 -0.5134660000000  0.3080430000000 1.0  -0.17
O      2 -0.5428970000000 -0.5134660000000  0.3080430000000 1.0  -0.17
S      3  0.0315590000000  0.5614420000000 -0.3226450000000 1.0   0.05
S      3  0.5298830000000  0.5614420000000 -0.3226450000000 1.0   0.05
S      3 -0.2500930000000  0.0284450000000  0.4412170000000 1.0   0.08
S      3  0.2785370000000  0.0284450000000  0.4412170000000 1.0   0.08
S      3 -0.2344210000000 -0.1555350000000  0.0512340000000 1.0  -0.10
S      3  0.0788860000000 -0.1555350000000  0.0512340000000 1.0  -0.10
Fe     4  0.4483270000000  0.2098730000000 -0.3204190000000 1.0  -0.44
Fe     4 -0.2384540000000  0.2098730000000 -0.3204190000000 1.0  -0.44
Fe     4 -0.4878440000000 -0.3058050000000 -0.5227570000000 1.0  -0.80
Fe     4  0.1820380000000 -0.3058050000000 -0.5227570000000 1.0  -0.80
Fe     4 -0.2072770000000 -0.0906580000000 -0.1854790000000 1.0  -1.09
Fe     4  0.1166190000000 -0.0906580000000 -0.1854790000000 1.0  -1.09
END
