TITL LFSO-Li2Fe2SO3-200913-111731-68a76e 0.0009 106.742509 -3.74425769E+003 7.84505 7.88804 8 (C2) n - 1
REM
REM Run started: Sun, 13 Sep 2020 12:12:08 +0100 in /lustre/scratch/uccabz1/launch_tmp/launcher_2020-09-13-10-17-28-735208
REM CASTEP 20.1 from code version af48c487+ pr-geom-scf-spinfix Tue Jun 2 15:39:59 2020 +0100
REM Functional Perdew Burke Ernzerhof Relativity Koelling-Harmon Dispersion off
REM Cut-off 340.0000 eV Grid scale 1.7500 Gmax 16.5316 1/A FBSC none
REM MP grid 5 3 3 Offset 0.000 0.000 0.000 No. kpts 22 Spacing 0.07
REM Total runtime: 3328.81 s
REM Overall efficiency: 92.7143 %
REM
REM
REM
REM compiler GCC version 4.9.2
REM options -cpp -iprefix /lustre/shared/ucl/apps/gcc/4.9.2/bin/../lib/gcc/x86_64-unknown-linux-gnu/4.9.2/ -mtune=corei7 -march=x86-64 -g -Og
REM COMMAND_LINE
REM seed 532508168 895905892 -256884665 -1888427358 -1870418248 959643727 1216036361 1524904770 -135857271 859861266 -314268976 1341742263
REM
REM S 3|1.8|5|6|7|30:31:32(qc=5)
REM O 2|1.5|12|13|15|20:21(qc=5)
REM Li 1|1.3|8|9|10|10U:20(qc=5)
REM Fe 3|2.2|2.0|1.0|8|9|10|40:41:32(qc=5)
REM 
CELL 1.54180    3.44465    5.68455    6.35889   82.39462   64.09872   72.36317
LATT -1
SFAC Li O  S  Fe 
Li     1 -0.0415270000000 -0.2175240000000  0.3432920000000 1.0   0.01
Li     1  0.2590500000000 -0.2175240000000 -0.3432920000000 1.0   0.01
O      2  0.4256110000000 -0.0727350000000  0.2952450000000 1.0   0.44
O      2 -0.3528760000000 -0.0727350000000 -0.2952450000000 1.0   0.44
O      2 -0.2146730000000  0.4293470000000  0.5000000000000 1.0   0.27
S      3 -0.1999660000000  0.3999330000000  0.0000000000000 1.0   0.20
Fe     4  0.2025880000000 -0.7645980000000  0.2365550000000 1.0   3.23
Fe     4  0.5620100000000 -0.7645980000000 -0.2365550000000 1.0   3.23
END
