TITL LFSO-Li3Fe3S4O2-200930-003054-682b47 -0.0417 225.740978 -5.28113253E+003 4.98024 5.67710 12 (Cm) n - 1
REM
REM Run started: Wed, 30 Sep 2020 20:27:21 +0100 in /lustre/scratch/uccabz1/launch_tmp/launcher_2020-09-30-19-02-31-943122
REM CASTEP 20.1 from code version af48c487+ pr-geom-scf-spinfix Tue Jun 2 15:39:59 2020 +0100
REM Functional Perdew Burke Ernzerhof Relativity Koelling-Harmon Dispersion off
REM Cut-off 340.0000 eV Grid scale 1.7500 Gmax 16.5316 1/A FBSC none
REM MP grid 4 3 3 Offset 0.000 0.000 0.000 No. kpts 18 Spacing 0.07
REM Total runtime: 62074.4 s
REM Overall efficiency: 88.0769 %
REM
REM
REM
REM compiler GCC version 4.9.2
REM options -cpp -iprefix /scratch/UCL/applications/gcc/4.9.2/bin/../lib/gcc/x86_64-unknown-linux-gnu/4.9.2/ -mtune=corei7 -march=x86-64 -g -O2
REM COMMAND_LINE
REM seed 594958549 1921113335 1904724314 -404490428 1061249893 -1981140334 1538560897 1605016321 1358442009 741630067 706475804 -1104208031
REM
REM S 3|1.8|5|6|7|30:31:32(qc=5)
REM O 2|1.5|12|13|15|20:21(qc=5)
REM Li 1|1.3|8|9|10|10U:20(qc=5)
REM Fe 3|2.2|2.0|1.0|8|9|10|40:41:32(qc=5)
REM 
CELL 1.54180    7.61040    7.61040    6.88183   76.28284  131.00342  128.39905
LATT -1
SFAC Li O  S  Fe 
Li     1  0.2066720000000 -0.0067730000000 -0.2805800000000 1.0   0.01
Li     1 -0.2738060000000 -0.4872500000000 -0.2805800000000 1.0   0.01
Li     1  1.0355740000000  0.2335770000000  0.2691500000000 1.0   0.01
O      2 -0.5710970000000 -0.4592910000000  0.4777410000000 1.0   0.19
O      2 -0.0629670000000  0.0488390000000  0.4777410000000 1.0   0.19
S      3 -0.5375000000000 -0.1626750000000 -0.1925990000000 1.0  -0.00
S      3 -0.0299230000000  0.3449020000000 -0.1925990000000 1.0  -0.00
S      3  0.5035620000000  0.1968060000000  0.1857740000000 1.0  -0.01
S      3 -0.0110310000000 -0.3177860000000  0.1857740000000 1.0  -0.01
Fe     4  0.4062830000000 -0.2541260000000 -0.5098900000000 1.0   1.16
Fe     4  0.7442370000000  0.0838270000000 -0.5098900000000 1.0   1.16
Fe     4 -0.0125870000000  0.5108700000000 -0.5017180000000 1.0   2.28
END
