TITL LFSO-Li3Fe3S2O4-200929-124404-bbd0ca -0.0087 161.977380 -5.54498826E+003 11.2089 11.4046 12 (C2/m) n - 1
REM
REM Run started: Tue, 29 Sep 2020 17:20:57 +0100 in /lustre/scratch/uccabz1/launch_tmp/launcher_2020-09-29-11-44-02-602310
REM CASTEP 20.1 from code version af48c487+ pr-geom-scf-spinfix Tue Jun 2 15:39:59 2020 +0100
REM Functional Perdew Burke Ernzerhof Relativity Koelling-Harmon Dispersion off
REM Cut-off 340.0000 eV Grid scale 1.7500 Gmax 16.5316 1/A FBSC none
REM MP grid 6 3 3 Offset 0.000 0.000 0.000 No. kpts 18 Spacing 0.07
REM Total runtime: 18349.6 s
REM Overall efficiency: 97.2222 %
REM
REM
REM
REM compiler GCC version 4.9.2
REM options -cpp -iprefix /lustre/shared/ucl/apps/gcc/4.9.2/bin/../lib/gcc/x86_64-unknown-linux-gnu/4.9.2/ -mtune=corei7 -march=x86-64 -g -Og
REM COMMAND_LINE
REM seed 526076447 -2045800245 1814916844 -290391284 -862873970 -1837789679 -23806924 -896123573 1622388223 311048517 1380995432 160282649
REM
REM S 3|1.8|5|6|7|30:31:32(qc=5)
REM O 2|1.5|12|13|15|20:21(qc=5)
REM Li 1|1.3|8|9|10|10U:20(qc=5)
REM Fe 3|2.2|2.0|1.0|8|9|10|40:41:32(qc=5)
REM 
CELL 1.54180    3.48321    7.72647    7.72647  112.80016  107.21464  107.21464
LATT -1
SFAC Li O  S  Fe 
Li     1  0.5000000000000 -0.3291720000000  0.3291720000000 1.0  -0.11
Li     1 -0.5000000000000  0.3291720000000 -0.3291720000000 1.0  -0.11
Li     1  0.5000000000000  0.0000000000000  0.0000000000000 1.0   0.03
O      2 -0.5436670000000 -0.2190500000000 -0.4442780000000 1.0   0.37
O      2  0.5436670000000  0.4442780000000  0.2190500000000 1.0   0.37
O      2  0.5436670000000  0.2190500000000  0.4442780000000 1.0   0.37
O      2 -0.5436670000000 -0.4442780000000 -0.2190500000000 1.0   0.37
S      3  0.5000000000000  0.1714550000000 -0.1714550000000 1.0   0.21
S      3 -0.5000000000000 -0.1714550000000  0.1714550000000 1.0   0.21
Fe     4 -0.5000000000000 -0.5000000000000  0.0000000000000 1.0   2.89
Fe     4  0.5000000000000  0.0000000000000 -0.5000000000000 1.0   2.89
Fe     4  0.5000000000000 -0.5000000000000  0.5000000000000 1.0   3.74
END
