TITL LFSO-Li3Fe3SO5-201001-211644-0c8531 0.0412 157.381505 -5.68340608E+003 14.3169 14.3441 12 (Pm) n - 1
REM
REM Run started: Thu, 01 Oct 2020 23:20:19 +0100 in /lustre/scratch/uccabz1/launch_tmp/launcher_2020-10-01-20-16-43-299482
REM CASTEP 20.1 from code version af48c487+ pr-geom-scf-spinfix Tue Jun 2 15:39:59 2020 +0100
REM Functional Perdew Burke Ernzerhof Relativity Koelling-Harmon Dispersion off
REM Cut-off 340.0000 eV Grid scale 1.7500 Gmax 16.5316 1/A FBSC none
REM MP grid 5 3 2 Offset 0.000 0.000 0.000 No. kpts 8 Spacing 0.07
REM Total runtime: 7447.43 s
REM Overall efficiency: 83.8571 %
REM
REM
REM
REM compiler GCC version 4.9.2
REM options -cpp -iprefix /lustre/shared/ucl/apps/gcc/4.9.2/bin/../lib/gcc/x86_64-unknown-linux-gnu/4.9.2/ -mtune=corei7 -march=x86-64 -g -Og
REM COMMAND_LINE
REM seed 124439206 -64271773 -622039264 441480241 1894468132 801563444 -500508406 -586295087 -1811675254 -333290459 303095963 -1636060846
REM
REM S 3|1.8|5|6|7|30:31:32(qc=5)
REM O 2|1.5|12|13|15|20:21(qc=5)
REM Li 1|1.3|8|9|10|10U:20(qc=5)
REM Fe 3|2.2|2.0|1.0|8|9|10|40:41:32(qc=5)
REM 
CELL 1.54180    3.28454    5.60161    8.71795   90.00000   90.00000  101.13143
LATT -1
SFAC Li O  S  Fe 
Li     1 -0.2076980000000  0.3974670000000 -0.3369270000000 1.0   0.01
Li     1 -0.2076980000000  0.3974670000000  0.3369270000000 1.0   0.01
Li     1  0.0268250000000  0.4212350000000  0.0000000000000 1.0   0.04
O      2 -0.3318760000000  0.0558070000000  0.3352740000000 1.0   0.50
O      2 -0.3318760000000  0.0558070000000 -0.3352740000000 1.0   0.50
O      2 -0.0832430000000 -0.3660570000000 -0.1698110000000 1.0   0.47
O      2 -0.0832430000000 -0.3660570000000  0.1698110000000 1.0   0.47
O      2  0.0174820000000 -0.3542690000000  0.5000000000000 1.0   0.49
S      3 -0.5938880000000  0.1140980000000  0.0000000000000 1.0   0.37
Fe     4  0.1060640000000 -0.1226440000000  0.3294050000000 1.0   3.91
Fe     4  0.1060640000000 -0.1226440000000 -0.3294050000000 1.0   3.91
Fe     4 -0.1728540000000 -0.1670190000000  0.0000000000000 1.0   3.63
END
