TITL LFSO-Li4Fe2S3O-200911-042036-e34681 -0.0611 453.000715 -7.75027080E+003 12.0846 12.7363 20 (Ccc2) n - 1
REM
REM Run started: Fri, 11 Sep 2020 16:45:10 +0100 in /lustre/scratch/uccabz1/launch_tmp/launcher_2020-09-11-03-20-34-758958
REM CASTEP 20.1 from code version af48c487+ pr-geom-scf-spinfix Tue Jun 2 15:39:59 2020 +0100
REM Functional Perdew Burke Ernzerhof Relativity Koelling-Harmon Dispersion off
REM Cut-off 340.0000 eV Grid scale 1.7500 Gmax 16.5316 1/A FBSC none
REM MP grid 3 3 1 Offset 0.000 0.000 0.000 No. kpts 4 Spacing 0.07
REM Total runtime: 50273.7 s
REM Overall efficiency: 98.3333 %
REM
REM
REM
REM compiler GCC version 4.9.2
REM options -cpp -iprefix /lustre/shared/ucl/apps/gcc/4.9.2/bin/../lib/gcc/x86_64-unknown-linux-gnu/4.9.2/ -mtune=corei7 -march=x86-64 -g -Og
REM COMMAND_LINE
REM seed 761035261 -671237577 1834323229 -1976942458 -836618767 -1524104506 -979475933 1102407707 1035603709 -189404424 -1202258848 1928227645
REM
REM S 3|1.8|5|6|7|30:31:32(qc=5)
REM O 2|1.5|12|13|15|20:21(qc=5)
REM Li 1|1.3|8|9|10|10U:20(qc=5)
REM Fe 3|2.2|2.0|1.0|8|9|10|40:41:32(qc=5)
REM 
CELL 1.54180    6.08890    6.08890   14.92343   90.00000   90.00000  125.03992
LATT -1
SFAC Li O  S  Fe 
Li     1 -0.2235730000000  0.2165020000000 -0.2194980000000 1.0  -0.03
Li     1  0.2235730000000 -0.2165020000000 -0.2194980000000 1.0  -0.03
Li     1 -0.2165020000000  0.2235730000000  0.2805020000000 1.0  -0.03
Li     1  0.2165020000000 -0.2235730000000  0.2805020000000 1.0  -0.03
Li     1 -0.2265840000000  0.1908340000000 -0.4692530000000 1.0  -0.01
Li     1  0.2265840000000 -0.1908340000000 -0.4692530000000 1.0  -0.01
Li     1 -0.1908340000000  0.2265840000000  0.0307470000000 1.0  -0.01
Li     1  0.1908340000000 -0.2265840000000  0.0307470000000 1.0  -0.01
O      2  0.5000000000000  0.0000000000000 -0.0469020000000 1.0   0.15
O      2 -0.0000000000000  0.5000000000000  0.4530980000000 1.0   0.15
S      3  0.1570310000000  0.3562310000000 -0.1108450000000 1.0   0.13
S      3 -0.1570310000000 -0.3562310000000 -0.1108450000000 1.0   0.13
S      3 -0.3562310000000 -0.1570310000000  0.3891550000000 1.0   0.13
S      3  0.3562310000000  0.1570310000000  0.3891550000000 1.0   0.13
S      3 -0.0000000000000  0.5000000000000  0.1583760000000 1.0   0.05
S      3 -0.5000000000000  0.0000000000000 -0.3416240000000 1.0   0.05
Fe     4 -0.2597170000000 -0.4490120000000  0.4139870000000 1.0   2.83
Fe     4  0.2597170000000  0.4490120000000  0.4139870000000 1.0   2.83
Fe     4  0.4490120000000  0.2597170000000 -0.0860130000000 1.0   2.83
Fe     4 -0.4490120000000 -0.2597170000000 -0.0860130000000 1.0   2.83
END
