TITL LFSO-Li2Fe4S2O3-200912-081220-76b53b -0.0364 418.341109 -1.15505647E+004 -7.86646 26.3812 22 (R3) n - 1
REM
REM Run started: Mon, 14 Sep 2020 02:31:13 +0100 in /lustre/scratch/uccabz1/launch_tmp/launcher_2020-09-12-07-12-19-113720
REM CASTEP 20.1 from code version af48c487+ pr-geom-scf-spinfix Tue Jun 2 15:39:59 2020 +0100
REM Functional Perdew Burke Ernzerhof Relativity Koelling-Harmon Dispersion off
REM Cut-off 340.0000 eV Grid scale 1.7500 Gmax 16.5316 1/A FBSC none
REM MP grid 2 2 2 Offset 0.000 0.000 0.000 No. kpts 2 Spacing 0.07
REM Total runtime: 154974 s
REM Overall efficiency: 90.4167 %
REM
REM
REM
REM compiler GCC version 4.9.2
REM options -cpp -iprefix /lustre/shared/ucl/apps/gcc/4.9.2/bin/../lib/gcc/x86_64-unknown-linux-gnu/4.9.2/ -mtune=corei7 -march=x86-64 -g -Og
REM COMMAND_LINE
REM seed 111617109 703362505 -1570733173 133569017 887457933 -69354104 -736111262 1849158895 2096510086 2012682662 306235516 -345682297
REM
REM S 3|1.8|5|6|7|30:31:32(qc=5)
REM O 2|1.5|12|13|15|20:21(qc=5)
REM Li 1|1.3|8|9|10|10U:20(qc=5)
REM Fe 3|2.2|2.0|1.0|8|9|10|40:41:32(qc=5)
REM 
CELL 1.54180    7.48919    7.48919    7.48919   86.96128   86.96128   86.96128
LATT -1
SFAC Li O  S  Fe 
Li     1 -0.4093520000000 -0.0324660000000  0.0184910000000 1.0  -0.02
Li     1  0.0184910000000 -0.4093520000000 -0.0324660000000 1.0  -0.02
Li     1 -0.0324660000000  0.0184910000000 -0.4093520000000 1.0  -0.02
Li     1  0.3641000000000  0.3641000000000  0.3641000000000 1.0   0.03
O      2  0.2130300000000  0.1797050000000 -0.5040970000000 1.0  -0.09
O      2 -0.5040970000000  0.2130300000000  0.1797050000000 1.0  -0.09
O      2  0.1797050000000 -0.5040970000000  0.2130300000000 1.0  -0.09
O      2 -0.1124020000000  0.1058790000000  0.2433780000000 1.0  -0.06
O      2  0.2433780000000 -0.1124020000000  0.1058790000000 1.0  -0.06
O      2  0.1058790000000  0.2433780000000 -0.1124020000000 1.0  -0.06
S      3  0.3974520000000 -0.4817510000000 -0.1931410000000 1.0  -0.03
S      3 -0.1931410000000  0.3974520000000 -0.4817510000000 1.0  -0.03
S      3 -0.4817510000000 -0.1931410000000  0.3974520000000 1.0  -0.03
S      3 -0.1281550000000 -0.1281550000000 -0.1281550000000 1.0  -0.22
Fe     4 -0.2993700000000  0.2615190000000 -0.7008280000000 1.0   3.02
Fe     4 -0.7008280000000 -0.2993700000000  0.2615190000000 1.0   3.02
Fe     4  0.2615190000000 -0.7008280000000 -0.2993700000000 1.0   3.02
Fe     4  0.0517620000000  0.2822190000000  0.3089710000000 1.0  -3.21
Fe     4  0.3089710000000  0.0517620000000  0.2822190000000 1.0  -3.21
Fe     4  0.2822190000000  0.3089710000000  0.0517620000000 1.0  -3.21
Fe     4 -0.4509960000000 -0.4509960000000 -0.4509960000000 1.0  -2.97
Fe     4  0.0396270000000  0.0396270000000  0.0396270000000 1.0  -3.52
END
