TITL LFSO-Li3Fe3S4O2-200929-211332-480ff9 0.0725 358.770102 -1.05601806E+004 0.244681E-01 0.224065 24 (I222) n - 1
REM
REM Run started: Thu, 01 Oct 2020 03:34:42 +0100 in /lustre/scratch/uccabz1/launch_tmp/launcher_2020-10-01-01-39-30-627175
REM CASTEP 20.1 from code version af48c487+ pr-geom-scf-spinfix Tue Jun 2 15:39:59 2020 +0100
REM Functional Perdew Burke Ernzerhof Relativity Koelling-Harmon Dispersion off
REM Cut-off 340.0000 eV Grid scale 1.7500 Gmax 16.5316 1/A FBSC none
REM MP grid 3 3 3 Offset 0.000 0.000 0.000 No. kpts 8 Spacing 0.07
REM Total runtime: 96597 s
REM Overall efficiency: 98.5 %
REM
REM
REM
REM compiler GCC version 4.9.2
REM options -cpp -iprefix /lustre/shared/ucl/apps/gcc/4.9.2/bin/../lib/gcc/x86_64-unknown-linux-gnu/4.9.2/ -mtune=corei7 -march=x86-64 -g -Og
REM COMMAND_LINE
REM seed -143887477 -201981202 1066118812 -1448732095 84007426 676077158 -2077679087 -1021489480 1125242908 -362077805 -2073807768 -1621885823
REM
REM S 3|1.8|5|6|7|30:31:32(qc=5)
REM O 2|1.5|12|13|15|20:21(qc=5)
REM Li 1|1.3|8|9|10|10U:20(qc=5)
REM Fe 3|2.2|2.0|1.0|8|9|10|40:41:32(qc=5)
REM 
CELL 1.54180    7.44600    7.91513    8.15966  119.01354  117.14661   90.00000
LATT -1
SFAC Li O  S  Fe 
Li     1 -0.1746980000000  0.0293440000000  0.3985980000000 1.0   0.00
Li     1  0.1746990000000 -0.3692550000000 -0.3985980000000 1.0   0.00
Li     1  0.4267040000000 -0.0293440000000 -0.3985980000000 1.0   0.00
Li     1 -0.4267030000000  0.3692550000000  0.3985980000000 1.0   0.00
Li     1  0.0000010000000  0.2148670000000 -0.0000000000000 1.0   0.00
Li     1  0.0000010000000 -0.2148670000000 -0.0000000000000 1.0   0.00
O      2  0.2534980000000  0.4072540000000 -0.5677670000000 1.0   0.00
O      2 -0.2534970000000 -0.0249790000000  0.5677670000000 1.0   0.00
O      2 -0.1787350000000 -0.4072540000000  0.5677670000000 1.0   0.00
O      2  0.1787360000000  0.0249790000000 -0.5677670000000 1.0   0.00
S      3  0.1311060000000  0.4122840000000 -0.2550040000000 1.0  -0.00
S      3 -0.1311050000000 -0.3327120000000  0.2550040000000 1.0  -0.00
S      3  0.3861110000000 -0.4122840000000  0.2550040000000 1.0  -0.00
S      3 -0.3861100000000  0.3327120000000 -0.2550040000000 1.0  -0.00
S      3  0.2189050000000  0.0278100000000 -0.1351860000000 1.0   0.00
S      3 -0.2189040000000  0.1629960000000  0.1351860000000 1.0   0.00
S      3  0.3540910000000 -0.0278100000000  0.1351860000000 1.0   0.00
S      3 -0.3540900000000 -0.1629960000000 -0.1351860000000 1.0   0.00
Fe     4  0.3448120000000  0.3265100000000 -0.0377480000000 1.0  -0.01
Fe     4 -0.3448110000000  0.3642580000000  0.0377480000000 1.0  -0.01
Fe     4  0.3825600000000 -0.3265100000000  0.0377480000000 1.0  -0.01
Fe     4 -0.3825590000000 -0.3642580000000 -0.0377480000000 1.0  -0.01
Fe     4  0.2816570000000  0.2816560000000 -0.4366880000000 1.0   0.01
Fe     4 -0.2816560000000 -0.2816560000000  0.4366880000000 1.0   0.01
END
