TITL LFSO-LiFeSO-200909-043807-9379dc -0.0468 302.549012 -9.02376293E+003 -16.3511 17.1822 20 (P2/m) n - 1
REM
REM Run started: Wed, 09 Sep 2020 18:45:07 +0100 in /lustre/scratch/uccabz1/launch_tmp/launcher_2020-09-09-03-38-05-656214
REM CASTEP 20.1 from code version af48c487+ pr-geom-scf-spinfix Tue Jun 2 15:39:59 2020 +0100
REM Functional Perdew Burke Ernzerhof Relativity Koelling-Harmon Dispersion off
REM Cut-off 340.0000 eV Grid scale 1.7500 Gmax 16.5316 1/A FBSC none
REM MP grid 2 4 3 Offset 0.000 0.000 0.000 No. kpts 6 Spacing 0.07
REM Total runtime: 56373.1 s
REM Overall efficiency: 98.8571 %
REM
REM
REM
REM compiler GCC version 4.9.2
REM options -cpp -iprefix /lustre/shared/ucl/apps/gcc/4.9.2/bin/../lib/gcc/x86_64-unknown-linux-gnu/4.9.2/ -mtune=corei7 -march=x86-64 -g -Og
REM COMMAND_LINE
REM seed 1082201768 -1668802382 -1039604524 -111659933 1471205844 1327910191 462910599 -1791274260 -1004812362 61252590 -2133528294 -1580434292
REM
REM S 3|1.8|5|6|7|30:31:32(qc=5)
REM O 2|1.5|12|13|15|20:21(qc=5)
REM Li 1|1.3|8|9|10|10U:20(qc=5)
REM Fe 3|2.2|2.0|1.0|8|9|10|40:41:32(qc=5)
REM 
CELL 1.54180    7.78961    7.06334   11.02583  150.08453   90.00000   90.00000
LATT -1
SFAC Li O  S  Fe 
Li     1  0.2780130000000  0.3690710000000  0.1793660000000 1.0   0.03
Li     1  0.2780130000000 -0.3690710000000 -0.1793660000000 1.0   0.03
Li     1 -0.2780130000000 -0.3690710000000 -0.1793660000000 1.0   0.03
Li     1 -0.2780130000000  0.3690710000000  0.1793660000000 1.0   0.03
Li     1  0.0000000000000 -0.5000000000000  0.5000000000000 1.0   0.06
O      2 -0.1781530000000  0.1217600000000  0.1787000000000 1.0  -0.20
O      2 -0.1781530000000 -0.1217600000000 -0.1787000000000 1.0  -0.20
O      2  0.1781530000000 -0.1217600000000 -0.1787000000000 1.0  -0.20
O      2  0.1781530000000  0.1217600000000  0.1787000000000 1.0  -0.20
O      2 -0.5000000000000 -0.5000000000000 -0.5000000000000 1.0  -0.35
S      3  0.1928920000000  0.1139050000000 -0.3464100000000 1.0   0.02
S      3  0.1928920000000 -0.1139050000000  0.3464100000000 1.0   0.02
S      3 -0.1928920000000 -0.1139050000000  0.3464100000000 1.0   0.02
S      3 -0.1928920000000  0.1139050000000 -0.3464100000000 1.0   0.02
S      3  0.5000000000000 -0.5000000000000  0.0000000000000 1.0  -0.19
Fe     4  0.3387020000000 -0.0520860000000 -0.2714540000000 1.0  -3.17
Fe     4  0.3387020000000  0.0520860000000  0.2714540000000 1.0  -3.17
Fe     4 -0.3387020000000  0.0520860000000  0.2714540000000 1.0  -3.17
Fe     4 -0.3387020000000 -0.0520860000000 -0.2714540000000 1.0  -3.17
Fe     4  0.0000000000000  0.0000000000000  0.0000000000000 1.0  -2.66
END
