TITL LFSO-Li3FeSO2-200911-162220-85e2e7 0.0085 207.166638 -5.28573619E+003 -8.08906 8.14626 14 (C2221) n - 1
REM
REM Run started: Fri, 11 Sep 2020 21:34:41 +0100 in /lustre/scratch/uccabz1/launch_tmp/launcher_2020-09-11-15-22-19-055605
REM CASTEP 20.1 from code version af48c487+ pr-geom-scf-spinfix Tue Jun 2 15:39:59 2020 +0100
REM Functional Perdew Burke Ernzerhof Relativity Koelling-Harmon Dispersion off
REM Cut-off 340.0000 eV Grid scale 1.7500 Gmax 16.5316 1/A FBSC none
REM MP grid 3 3 3 Offset 0.000 0.000 0.000 No. kpts 8 Spacing 0.07
REM Total runtime: 20773.2 s
REM Overall efficiency: 97.4167 %
REM
REM
REM
REM compiler GCC version 4.9.2
REM options -cpp -iprefix /lustre/shared/ucl/apps/gcc/4.9.2/bin/../lib/gcc/x86_64-unknown-linux-gnu/4.9.2/ -mtune=corei7 -march=x86-64 -g -Og
REM COMMAND_LINE
REM seed -792628381 1487060713 1425012614 692843506 -1657277920 -1392619617 179837410 -1525660659 -1387538814 -583188061 -1387714819 -1507872846
REM
REM S 3|1.8|5|6|7|30:31:32(qc=5)
REM O 2|1.5|12|13|15|20:21(qc=5)
REM Li 1|1.3|8|9|10|10U:20(qc=5)
REM Fe 3|2.2|2.0|1.0|8|9|10|40:41:32(qc=5)
REM 
CELL 1.54180    5.25445    5.38029    7.78474   90.00000  109.72364   90.00000
LATT -1
SFAC Li O  S  Fe 
Li     1  0.3766830000000 -0.1490250000000  0.1870970000000 1.0  -0.02
Li     1 -0.3766830000000  0.3509750000000 -0.1870970000000 1.0  -0.02
Li     1  0.1895860000000 -0.3509750000000 -0.1870970000000 1.0  -0.02
Li     1 -0.1895860000000  0.1490250000000  0.1870970000000 1.0  -0.02
Li     1 -0.2318620000000 -0.0000000000000 -0.4637250000000 1.0   0.07
Li     1  0.2318620000000  0.5000000000000  0.4637250000000 1.0   0.07
O      2 -0.4555410000000  0.2827130000000 -0.4334660000000 1.0  -0.20
O      2  0.4555410000000 -0.2172870000000  0.4334660000000 1.0  -0.20
O      2 -0.0220750000000  0.2172870000000  0.4334660000000 1.0  -0.20
O      2  0.0220750000000 -0.2827130000000 -0.4334660000000 1.0  -0.20
S      3  0.4412200000000 -0.0000000000000 -0.1175600000000 1.0  -0.22
S      3 -0.4412200000000 -0.5000000000000  0.1175600000000 1.0  -0.22
Fe     4  0.2822390000000 -0.0000000000000  0.5644790000000 1.0  -3.45
Fe     4 -0.2822390000000 -0.5000000000000 -0.5644790000000 1.0  -3.45
END
