TITL LFSO-Li2Fe2S2O-200913-114904-d2c8b0 -0.0554 464.500943 -9.51632057E+003 -17.4115 18.0690 21 (Pm) n - 1
REM
REM Run started: Mon, 14 Sep 2020 13:39:59 +0100 in /lustre/scratch/uccabz1/launch_tmp/launcher_2020-09-13-10-49-02-165642
REM CASTEP 20.1 from code version af48c487+ pr-geom-scf-spinfix Tue Jun 2 15:39:59 2020 +0100
REM Functional Perdew Burke Ernzerhof Relativity Koelling-Harmon Dispersion off
REM Cut-off 340.0000 eV Grid scale 1.7500 Gmax 16.5316 1/A FBSC none
REM MP grid 4 2 2 Offset 0.000 0.000 0.000 No. kpts 4 Spacing 0.07
REM Total runtime: 97100.4 s
REM Overall efficiency: 92.2727 %
REM
REM
REM
REM compiler GCC version 4.9.2
REM options -cpp -iprefix /lustre/shared/ucl/apps/gcc/4.9.2/bin/../lib/gcc/x86_64-unknown-linux-gnu/4.9.2/ -mtune=corei7 -march=x86-64 -g -Og
REM COMMAND_LINE
REM seed 287298626 -235536205 1364725195 1134549434 441240133 1875906467 1712885047 -1686878638 1245037024 935750464 1340459770 -1679942548
REM
REM S 3|1.8|5|6|7|30:31:32(qc=5)
REM O 2|1.5|12|13|15|20:21(qc=5)
REM Li 1|1.3|8|9|10|10U:20(qc=5)
REM Fe 3|2.2|2.0|1.0|8|9|10|40:41:32(qc=5)
REM 
CELL 1.54180    3.80434   12.31815    9.94719   90.00000   85.18031   90.00000
LATT -1
SFAC Li O  S  Fe 
Li     1  0.1250280000000 -0.3892700000000  0.3029260000000 1.0  -0.03
Li     1  0.1250280000000  0.3892700000000  0.3029260000000 1.0  -0.03
Li     1  0.1740650000000  0.2168300000000  0.0872740000000 1.0   0.02
Li     1  0.1740650000000 -0.2168300000000  0.0872740000000 1.0   0.02
Li     1 -0.3760600000000  0.1558480000000  0.3754470000000 1.0  -0.01
Li     1 -0.3760600000000 -0.1558480000000  0.3754470000000 1.0  -0.01
O      2 -0.1695700000000  0.3771300000000 -0.2362640000000 1.0  -0.19
O      2 -0.1695700000000 -0.3771300000000 -0.2362640000000 1.0  -0.19
O      2 -0.0668890000000 -0.5000000000000  0.4254640000000 1.0  -0.26
S      3  0.1443500000000  0.0851690000000  0.2663040000000 1.0   0.00
S      3  0.1443500000000 -0.0851690000000  0.2663040000000 1.0   0.00
S      3  0.3808870000000 -0.3012060000000 -0.4696390000000 1.0  -0.12
S      3  0.3808870000000  0.3012060000000 -0.4696390000000 1.0  -0.12
S      3 -0.3474830000000 -0.3303260000000  0.1483120000000 1.0  -0.12
S      3 -0.3474830000000  0.3303260000000  0.1483120000000 1.0  -0.12
Fe     4 -0.1268110000000 -0.4034730000000  0.5693780000000 1.0  -2.45
Fe     4 -0.1268110000000  0.4034730000000  0.5693780000000 1.0  -2.45
Fe     4 -0.2962400000000 -0.4020180000000 -0.0536060000000 1.0  -3.07
Fe     4 -0.2962400000000  0.4020180000000 -0.0536060000000 1.0  -3.07
Fe     4  0.3337590000000 -0.4012580000000 -0.2611230000000 1.0  -2.61
Fe     4  0.3337590000000  0.4012580000000 -0.2611230000000 1.0  -2.61
END
