TITL LFSO-Li4Fe3S4O-200926-015441-16f65a 0.0251 222.076786 -5.04372825E+003 10.9456 11.1450 12 (P2) n - 1
REM
REM Run started: Sat, 26 Sep 2020 08:36:01 +0100 in /lustre/scratch/uccabz1/launch_tmp/launcher_2020-09-26-00-54-39-921315
REM CASTEP 20.1 from code version af48c487+ pr-geom-scf-spinfix Tue Jun 2 15:39:59 2020 +0100
REM Functional Perdew Burke Ernzerhof Relativity Koelling-Harmon Dispersion off
REM Cut-off 340.0000 eV Grid scale 1.7500 Gmax 16.5316 1/A FBSC none
REM MP grid 4 4 2 Offset 0.000 0.000 0.000 No. kpts 8 Spacing 0.07
REM Total runtime: 27242.3 s
REM Overall efficiency: 93.75 %
REM
REM
REM
REM compiler GCC version 4.9.2
REM options -cpp -iprefix /lustre/shared/ucl/apps/gcc/4.9.2/bin/../lib/gcc/x86_64-unknown-linux-gnu/4.9.2/ -mtune=corei7 -march=x86-64 -g -Og
REM COMMAND_LINE
REM seed 1811725751 -1287760866 294255576 -1014124959 -1505586094 1586794966 -1382609000 -89227348 -1121626087 -2034955432 838668866 -521811724
REM
REM S 3|1.8|5|6|7|30:31:32(qc=5)
REM O 2|1.5|12|13|15|20:21(qc=5)
REM Li 1|1.3|8|9|10|10U:20(qc=5)
REM Fe 3|2.2|2.0|1.0|8|9|10|40:41:32(qc=5)
REM 
CELL 1.54180    3.83642    7.28740   14.23009  146.06794   90.00000   90.00000
LATT -1
SFAC Li O  S  Fe 
Li     1 -0.0996430000000  0.0214490000000 -0.3401370000000 1.0  -0.01
Li     1 -0.0996430000000 -0.0214490000000  0.3401370000000 1.0  -0.01
Li     1 -0.6120970000000  0.3245140000000  0.0718230000000 1.0   0.02
Li     1 -0.6120970000000 -0.3245140000000 -0.0718230000000 1.0   0.02
O      2 -0.1002510000000  0.5000000000000 -0.5000000000000 1.0   0.27
S      3  0.3989800000000 -0.0384170000000  0.2061950000000 1.0   0.20
S      3  0.3989800000000  0.0384170000000 -0.2061950000000 1.0   0.20
S      3 -0.1140170000000 -0.4875180000000 -0.2265950000000 1.0   0.25
S      3 -0.1140170000000  0.4875180000000  0.2265950000000 1.0   0.25
Fe     4 -0.1077570000000  0.2629780000000  0.2718250000000 1.0   3.53
Fe     4 -0.1077570000000 -0.2629780000000 -0.2718250000000 1.0   3.53
Fe     4 -0.6008020000000  0.5000000000000 -0.5000000000000 1.0   2.67
END
