TITL LFSO-Li2FeSO-200912-014053-b59e58 0.0420 169.318864 -4.00558896E+003 7.98535 8.13259 10 (R3m) n - 1
REM
REM Run started: Sat, 12 Sep 2020 06:03:46 +0100 in /lustre/scratch/uccabz1/launch_tmp/launcher_2020-09-12-00-40-51-342685
REM CASTEP 20.1 from code version af48c487+ pr-geom-scf-spinfix Tue Jun 2 15:39:59 2020 +0100
REM Functional Perdew Burke Ernzerhof Relativity Koelling-Harmon Dispersion off
REM Cut-off 340.0000 eV Grid scale 1.7500 Gmax 16.5316 1/A FBSC none
REM MP grid 4 4 2 Offset 0.000 0.000 0.000 No. kpts 10 Spacing 0.07
REM Total runtime: 15816.1 s
REM Overall efficiency: 88.7273 %
REM
REM
REM
REM compiler GCC version 4.9.2
REM options -cpp -iprefix /lustre/shared/ucl/apps/gcc/4.9.2/bin/../lib/gcc/x86_64-unknown-linux-gnu/4.9.2/ -mtune=corei7 -march=x86-64 -g -Og
REM COMMAND_LINE
REM seed 2007790168 977268567 -557796683 -308519783 -55808083 1335956971 809007899 1238799918 -6183007 577816427 -1360943033 -713533605
REM
REM S 3|1.8|5|6|7|30:31:32(qc=5)
REM O 2|1.5|12|13|15|20:21(qc=5)
REM Li 1|1.3|8|9|10|10U:20(qc=5)
REM Fe 3|2.2|2.0|1.0|8|9|10|40:41:32(qc=5)
REM 
CELL 1.54180    4.68709    4.68709    9.30188   75.40746   75.40746   60.00000
LATT -1
SFAC Li O  S  Fe 
Li     1 -0.5595230000000  0.4404770000000  0.1359020000000 1.0   0.00
Li     1 -0.0168550000000 -0.5595230000000  0.1359020000000 1.0   0.00
Li     1  0.4404770000000 -0.0168550000000  0.1359020000000 1.0   0.00
Li     1  0.0305010000000  0.0305010000000 -0.0915010000000 1.0  -0.02
O      2  0.2224910000000  0.2224910000000 -0.6674740000000 1.0   0.56
O      2  0.3365700000000  0.3365700000000 -1.0097100000000 1.0   0.14
S      3 -0.0594040000000 -0.0594040000000  0.1782120000000 1.0   0.10
S      3 -0.2226010000000 -0.2226010000000  0.6678020000000 1.0   0.31
Fe     4  0.1563660000000  0.1563660000000 -0.4690980000000 1.0   3.52
Fe     4 -0.1431920000000 -0.1431920000000  0.4295770000000 1.0   3.36
END
