TITL LFSO-Li4Fe3SO4-200930-153916-8b9144 0.0272 335.732103 -1.08902576E+004 19.9675 20.8033 24 (P2) n - 1
REM
REM Run started: Thu, 01 Oct 2020 17:15:14 +0100 in /lustre/scratch/uccabz1/launch_tmp/launcher_2020-09-30-14-39-15-200683
REM CASTEP 20.1 from code version af48c487+ pr-geom-scf-spinfix Tue Jun 2 15:39:59 2020 +0100
REM Functional Perdew Burke Ernzerhof Relativity Koelling-Harmon Dispersion off
REM Cut-off 340.0000 eV Grid scale 1.7500 Gmax 16.5316 1/A FBSC none
REM MP grid 4 3 2 Offset 0.000 0.000 0.000 No. kpts 6 Spacing 0.07
REM Total runtime: 91612.8 s
REM Overall efficiency: 97.7692 %
REM
REM
REM
REM compiler GCC version 4.9.2
REM options -cpp -iprefix /lustre/shared/ucl/apps/gcc/4.9.2/bin/../lib/gcc/x86_64-unknown-linux-gnu/4.9.2/ -mtune=corei7 -march=x86-64 -g -Og
REM COMMAND_LINE
REM seed -1558706319 -494277472 -227800000 -874574847 1745009430 459917710 261695478 -2104591751 986633741 1246801840 -853960680 -1034206240
REM
REM S 3|1.8|5|6|7|30:31:32(qc=5)
REM O 2|1.5|12|13|15|20:21(qc=5)
REM Li 1|1.3|8|9|10|10U:20(qc=5)
REM Fe 3|2.2|2.0|1.0|8|9|10|40:41:32(qc=5)
REM 
CELL 1.54180    7.70260   11.32534    7.81336   90.00000   90.00000  150.49044
LATT -1
SFAC Li O  S  Fe 
Li     1 -0.1746840000000 -0.3589870000000  0.2957050000000 1.0  -0.07
Li     1  0.1746840000000  0.3589870000000  0.2957050000000 1.0  -0.07
Li     1  0.3297920000000  0.1772310000000  0.1369580000000 1.0   0.02
Li     1 -0.3297920000000 -0.1772310000000  0.1369580000000 1.0   0.02
Li     1  0.3082150000000 -0.2694550000000 -0.1793780000000 1.0  -0.10
Li     1 -0.3082150000000  0.2694550000000 -0.1793780000000 1.0  -0.10
Li     1  0.0659560000000  0.2184480000000 -0.3269760000000 1.0  -0.08
Li     1 -0.0659560000000 -0.2184480000000 -0.3269760000000 1.0  -0.08
O      2 -0.5938180000000 -0.1599540000000  0.0323520000000 1.0   0.14
O      2  0.5938180000000  0.1599540000000  0.0323520000000 1.0   0.14
O      2 -0.1452480000000  0.1802680000000 -0.5147390000000 1.0   0.28
O      2  0.1452480000000 -0.1802680000000 -0.5147390000000 1.0   0.28
O      2 -0.0771160000000 -0.1878640000000  0.1156290000000 1.0   0.28
O      2  0.0771160000000  0.1878640000000  0.1156290000000 1.0   0.28
O      2 -0.4293410000000  0.3261840000000  0.3578290000000 1.0   0.29
O      2  0.4293410000000 -0.3261840000000  0.3578290000000 1.0   0.29
S      3 -0.2871100000000 -0.5091860000000 -0.1643890000000 1.0   0.12
S      3  0.2871100000000  0.5091860000000 -0.1643890000000 1.0   0.12
Fe     4 -0.1692420000000 -0.5042270000000  0.5641730000000 1.0   3.11
Fe     4  0.1692420000000  0.5042270000000  0.5641730000000 1.0   3.11
Fe     4 -0.5676070000000 -0.1642160000000  0.4295180000000 1.0   3.42
Fe     4  0.5676070000000  0.1642160000000  0.4295180000000 1.0   3.42
Fe     4  0.1494090000000 -0.1695840000000  0.0128580000000 1.0   2.57
Fe     4 -0.1494090000000  0.1695840000000  0.0128580000000 1.0   2.57
END
