TITL LFSO-Li2Fe3S2O2-200921-012252-0f803d 0.0434 144.511338 -4.47058647E+003 -6.42430 6.89885 9 (Cmm2) n - 1
REM
REM Run started: Mon, 21 Sep 2020 03:41:21 +0100 in /lustre/scratch/uccabz1/launch_tmp/launcher_2020-09-21-00-22-50-469253
REM CASTEP 20.1 from code version af48c487+ pr-geom-scf-spinfix Tue Jun 2 15:39:59 2020 +0100
REM Functional Perdew Burke Ernzerhof Relativity Koelling-Harmon Dispersion off
REM Cut-off 340.0000 eV Grid scale 1.7500 Gmax 16.5316 1/A FBSC none
REM MP grid 4 4 2 Offset 0.000 0.000 0.000 No. kpts 6 Spacing 0.07
REM Total runtime: 9569.65 s
REM Overall efficiency: 96 %
REM
REM
REM
REM compiler GCC version 4.9.2
REM options -cpp -iprefix /lustre/shared/ucl/apps/gcc/4.9.2/bin/../lib/gcc/x86_64-unknown-linux-gnu/4.9.2/ -mtune=corei7 -march=x86-64 -g -Og
REM COMMAND_LINE
REM seed -719247523 810705320 1904383666 1519154399 -936646651 -1424099398 -1208579124 -1465297137 1547433285 -777979010 -696320507 -1350476866
REM
REM S 3|1.8|5|6|7|30:31:32(qc=5)
REM O 2|1.5|12|13|15|20:21(qc=5)
REM Li 1|1.3|8|9|10|10U:20(qc=5)
REM Fe 3|2.2|2.0|1.0|8|9|10|40:41:32(qc=5)
REM 
CELL 1.54180    3.76211    3.76211   10.23365   90.00000   90.00000   93.87113
LATT -1
SFAC Li O  S  Fe 
Li     1 -0.2219490000000  0.2219490000000  0.5280810000000 1.0   0.06
Li     1  0.2219490000000 -0.2219490000000  0.5280810000000 1.0   0.06
O      2  0.0000000000000 -0.5000000000000 -0.3341910000000 1.0  -0.12
O      2  0.5000000000000  0.0000000000000 -0.3341910000000 1.0  -0.12
S      3  0.0000000000000 -0.5000000000000  0.1416880000000 1.0   0.01
S      3  0.5000000000000  0.0000000000000  0.1416880000000 1.0   0.01
Fe     4  0.2718100000000  0.2718100000000  0.3045830000000 1.0  -1.78
Fe     4 -0.2718100000000 -0.2718100000000  0.3045830000000 1.0  -1.78
Fe     4  0.5000000000000 -0.5000000000000 -0.2952230000000 1.0  -2.76
END
