TITL LFSO-Li3Fe3S4O2-200929-202132-717916 -0.0332 435.520686 -1.05636596E+004 -0.393291E-01 15.8847 24 (R3) n - 1
REM
REM Run started: Thu, 01 Oct 2020 04:01:35 +0100 in /lustre/scratch/uccabz1/launch_tmp/launcher_2020-09-29-19-21-30-939533
REM CASTEP 20.1 from code version af48c487+ pr-geom-scf-spinfix Tue Jun 2 15:39:59 2020 +0100
REM Functional Perdew Burke Ernzerhof Relativity Koelling-Harmon Dispersion off
REM Cut-off 340.0000 eV Grid scale 1.7500 Gmax 16.5316 1/A FBSC none
REM MP grid 2 2 3 Offset 0.000 0.000 0.000 No. kpts 6 Spacing 0.07
REM Total runtime: 124429 s
REM Overall efficiency: 98.4167 %
REM
REM
REM
REM compiler GCC version 4.9.2
REM options -cpp -iprefix /lustre/shared/ucl/apps/gcc/4.9.2/bin/../lib/gcc/x86_64-unknown-linux-gnu/4.9.2/ -mtune=corei7 -march=x86-64 -g -Og
REM COMMAND_LINE
REM seed 1471363865 -279375126 -1558056865 819045007 -1496997281 1786699145 730081283 1713090835 1689755851 -1868268786 1844667703 1964690775
REM
REM S 3|1.8|5|6|7|30:31:32(qc=5)
REM O 2|1.5|12|13|15|20:21(qc=5)
REM Li 1|1.3|8|9|10|10U:20(qc=5)
REM Fe 3|2.2|2.0|1.0|8|9|10|40:41:32(qc=5)
REM 
CELL 1.54180    9.44689    9.44689    7.84233   52.96506   52.96506   60.00000
LATT -1
SFAC Li O  S  Fe 
Li     1  0.1323380000000 -0.4655760000000  0.7511870000000 1.0   0.01
Li     1 -0.4655760000000 -0.4179480000000  0.7511870000000 1.0   0.01
Li     1 -0.4179480000000  0.1323380000000  0.7511870000000 1.0   0.01
Li     1  0.3479030000000  0.0217240000000  0.2483980000000 1.0   0.02
Li     1  0.0217240000000  0.3819750000000  0.2483980000000 1.0   0.02
Li     1  0.3819750000000  0.3479030000000  0.2483980000000 1.0   0.02
O      2  0.5228170000000 -0.0854790000000  0.0312720000000 1.0   0.14
O      2 -0.0854790000000 -0.4686100000000  0.0312720000000 1.0   0.14
O      2 -0.4686100000000  0.5228170000000  0.0312720000000 1.0   0.14
O      2  0.2642760000000  0.2642760000000 -0.7928270000000 1.0  -0.02
S      3 -0.0827990000000 -0.0502820000000 -0.2567980000000 1.0  -0.01
S      3 -0.0502820000000  0.3898800000000 -0.2567980000000 1.0  -0.01
S      3  0.3898800000000 -0.0827990000000 -0.2567980000000 1.0  -0.01
S      3 -0.2458060000000  0.1670930000000  0.3106900000000 1.0  -0.07
S      3  0.1670930000000 -0.2319780000000  0.3106900000000 1.0  -0.07
S      3 -0.2319780000000 -0.2458060000000  0.3106900000000 1.0  -0.07
S      3  0.5452260000000  0.5452260000000 -0.6356790000000 1.0  -0.06
S      3  0.3691120000000  0.3691120000000 -0.1073370000000 1.0   0.00
Fe     4 -0.3329550000000 -0.0801460000000 -0.5155870000000 1.0  -2.40
Fe     4 -0.0801460000000 -0.0713120000000 -0.5155870000000 1.0  -2.40
Fe     4 -0.0713120000000 -0.3329550000000 -0.5155870000000 1.0  -2.40
Fe     4 -0.2520560000000  0.4678160000000  0.0429450000000 1.0   2.32
Fe     4  0.4678160000000 -0.2587050000000  0.0429450000000 1.0   2.32
Fe     4 -0.2587050000000 -0.2520560000000  0.0429450000000 1.0   2.32
END
