TITL LFSO-Li4Fe2SO3-200910-223024-060cc2 0.0025 137.524289 -4.14125681E+003 6.67748 6.92747 10 (Pm) n - 1
REM
REM Run started: Fri, 11 Sep 2020 00:14:56 +0100 in /lustre/scratch/uccabz1/launch_tmp/launcher_2020-09-10-21-30-23-295602
REM CASTEP 20.1 from code version af48c487+ pr-geom-scf-spinfix Tue Jun 2 15:39:59 2020 +0100
REM Functional Perdew Burke Ernzerhof Relativity Koelling-Harmon Dispersion off
REM Cut-off 340.0000 eV Grid scale 1.7500 Gmax 16.5316 1/A FBSC none
REM MP grid 5 3 2 Offset 0.000 0.000 0.000 No. kpts 10 Spacing 0.07
REM Total runtime: 6533.42 s
REM Overall efficiency: 81.25 %
REM
REM
REM
REM compiler GCC version 4.9.2
REM options -cpp -iprefix /lustre/shared/ucl/apps/gcc/4.9.2/bin/../lib/gcc/x86_64-unknown-linux-gnu/4.9.2/ -mtune=corei7 -march=x86-64 -g -Og
REM COMMAND_LINE
REM seed 159308752 1709473208 -1438953695 218612840 1238449762 -1888143996 -1301446621 -1281189223 462930601 1058740112 636345614 -12435389
REM
REM S 3|1.8|5|6|7|30:31:32(qc=5)
REM O 2|1.5|12|13|15|20:21(qc=5)
REM Li 1|1.3|8|9|10|10U:20(qc=5)
REM Fe 3|2.2|2.0|1.0|8|9|10|40:41:32(qc=5)
REM 
CELL 1.54180    3.01293    5.30441    8.93542   90.00000  105.62882   90.00000
LATT -1
SFAC Li O  S  Fe 
Li     1 -0.5441990000000  0.2767810000000  0.0793720000000 1.0  -0.03
Li     1 -0.5441990000000 -0.2767810000000  0.0793720000000 1.0  -0.03
Li     1  0.2252110000000  0.2363740000000 -0.1774170000000 1.0  -0.02
Li     1  0.2252110000000 -0.2363740000000 -0.1774170000000 1.0  -0.02
O      2 -0.1699040000000  0.2515290000000 -0.0556890000000 1.0   0.14
O      2 -0.1699040000000 -0.2515290000000 -0.0556890000000 1.0   0.14
O      2 -0.5967480000000 -0.5000000000000  0.2627750000000 1.0   0.32
S      3  0.0592180000000  0.0000000000000 -0.4499290000000 1.0   0.08
Fe     4  0.4486200000000 -0.2541290000000  0.4131750000000 1.0   3.05
Fe     4  0.4486200000000  0.2541290000000  0.4131750000000 1.0   3.05
END
