TITL LFSO-Li2Fe2SO2-200913-005356-a298ba -0.0130 81.972332 -3.30708333E+003 3.63816 3.81290 7 (R3m) n - 1
REM
REM Run started: Sun, 13 Sep 2020 02:17:39 +0100 in /lustre/scratch/uccabz1/launch_tmp/launcher_2020-09-12-23-53-54-799325
REM CASTEP 20.1 from code version af48c487+ pr-geom-scf-spinfix Tue Jun 2 15:39:59 2020 +0100
REM Functional Perdew Burke Ernzerhof Relativity Koelling-Harmon Dispersion off
REM Cut-off 340.0000 eV Grid scale 1.7500 Gmax 16.5316 1/A FBSC none
REM MP grid 5 5 2 Offset 0.000 0.000 0.000 No. kpts 15 Spacing 0.07
REM Total runtime: 5136.19 s
REM Overall efficiency: 92.2857 %
REM
REM
REM
REM compiler GCC version 4.9.2
REM options -cpp -iprefix /lustre/shared/ucl/apps/gcc/4.9.2/bin/../lib/gcc/x86_64-unknown-linux-gnu/4.9.2/ -mtune=corei7 -march=x86-64 -g -Og
REM COMMAND_LINE
REM seed 2108875439 231267811 348690877 1339624066 272244546 -37473247 672900527 -1733732981 -204746846 -811746896 -1603529522 1036091401
REM
REM S 3|1.8|5|6|7|30:31:32(qc=5)
REM O 2|1.5|12|13|15|20:21(qc=5)
REM Li 1|1.3|8|9|10|10U:20(qc=5)
REM Fe 3|2.2|2.0|1.0|8|9|10|40:41:32(qc=5)
REM 
CELL 1.54180    3.51318    3.51318    7.93264   77.20646   77.20646   60.00000
LATT -1
SFAC Li O  S  Fe 
Li     1  0.3357830000000  0.3357830000000 -0.0073480000000 1.0   0.01
Li     1 -0.0757410000000 -0.0757410000000  0.2272240000000 1.0   0.00
O      2 -0.4274170000000 -0.4274170000000  0.2822510000000 1.0   0.26
O      2  0.0118680000000  0.0118680000000 -0.0356050000000 1.0   0.24
S      3 -0.2062670000000 -0.2062670000000 -0.3812010000000 1.0  -0.06
Fe     4  0.4959660000000  0.4959660000000 -0.4878970000000 1.0   1.46
Fe     4  0.0899870000000  0.0899870000000  0.7300390000000 1.0   1.74
END
