TITL LFSO-Li4Fe3SO4-200930-233859-762e1b -0.0422 152.904271 -5.44543868E+003 11.6795 11.7722 12 (C2) n - 1
REM
REM Run started: Thu, 01 Oct 2020 12:52:10 +0100 in /lustre/scratch/uccabz1/launch_tmp/launcher_2020-09-30-22-38-57-961789
REM CASTEP 20.1 from code version af48c487+ pr-geom-scf-spinfix Tue Jun 2 15:39:59 2020 +0100
REM Functional Perdew Burke Ernzerhof Relativity Koelling-Harmon Dispersion off
REM Cut-off 340.0000 eV Grid scale 1.7500 Gmax 16.5316 1/A FBSC none
REM MP grid 5 5 2 Offset 0.000 0.000 0.000 No. kpts 15 Spacing 0.07
REM Total runtime: 34654 s
REM Overall efficiency: 75.5455 %
REM
REM
REM
REM compiler GCC version 4.9.2
REM options -cpp -iprefix /lustre/shared/ucl/apps/gcc/4.9.2/bin/../lib/gcc/x86_64-unknown-linux-gnu/4.9.2/ -mtune=corei7 -march=x86-64 -g -Og
REM COMMAND_LINE
REM seed -1219636082 758922898 345666257 2023360915 469626342 1373105165 -1733261259 -637694001 927018946 1197257559 544712282 -2029482156
REM
REM S 3|1.8|5|6|7|30:31:32(qc=5)
REM O 2|1.5|12|13|15|20:21(qc=5)
REM Li 1|1.3|8|9|10|10U:20(qc=5)
REM Fe 3|2.2|2.0|1.0|8|9|10|40:41:32(qc=5)
REM 
CELL 1.54180    3.33220    3.33220   13.93886   96.29726   96.29726   89.74260
LATT -1
SFAC Li O  S  Fe 
Li     1  0.3176900000000  0.1977280000000 -0.0457440000000 1.0  -0.03
Li     1 -0.1977280000000 -0.3176900000000  0.0457440000000 1.0  -0.03
Li     1 -0.0332010000000 -0.4725510000000  0.3176170000000 1.0  -0.10
Li     1  0.4725510000000  0.0332010000000 -0.3176170000000 1.0  -0.10
O      2  0.0017840000000  0.1040920000000 -0.2483460000000 1.0   0.32
O      2 -0.1040920000000 -0.0017840000000  0.2483460000000 1.0   0.32
O      2  0.3104340000000 -0.5636200000000  0.0888860000000 1.0   0.28
O      2  0.5636200000000 -0.3104340000000 -0.0888860000000 1.0   0.28
S      3 -0.5086220000000  0.5086220000000  0.5000000000000 1.0   0.15
Fe     4 -0.0449470000000 -0.3674140000000 -0.1801730000000 1.0   3.74
Fe     4  0.3674140000000  0.0449470000000  0.1801730000000 1.0   3.74
Fe     4 -0.0027690000000  0.0027690000000  0.5000000000000 1.0   3.11
END
