TITL LFSO-Li3FeSO2-200911-164929-3f9566 -0.0269 342.303027 -7.92841419E+003 -12.9509 13.1203 21 (Cm) n - 1
REM
REM Run started: Sat, 12 Sep 2020 03:54:27 +0100 in /lustre/scratch/uccabz1/launch_tmp/launcher_2020-09-11-15-49-26-964437
REM CASTEP 20.1 from code version af48c487+ pr-geom-scf-spinfix Tue Jun 2 15:39:59 2020 +0100
REM Functional Perdew Burke Ernzerhof Relativity Koelling-Harmon Dispersion off
REM Cut-off 340.0000 eV Grid scale 1.7500 Gmax 16.5316 1/A FBSC none
REM MP grid 3 3 3 Offset 0.000 0.000 0.000 No. kpts 10 Spacing 0.07
REM Total runtime: 40150.2 s
REM Overall efficiency: 70.1111 %
REM
REM
REM
REM compiler GCC version 4.9.2
REM options -cpp -iprefix /lustre/shared/ucl/apps/gcc/4.9.2/bin/../lib/gcc/x86_64-unknown-linux-gnu/4.9.2/ -mtune=corei7 -march=x86-64 -g -Og
REM COMMAND_LINE
REM seed 2121857396 469064104 1933864513 278273663 1964408481 41948402 -157628499 1303433490 -1383734174 -1950992977 1685257747 -1762088580
REM
REM S 3|1.8|5|6|7|30:31:32(qc=5)
REM O 2|1.5|12|13|15|20:21(qc=5)
REM Li 1|1.3|8|9|10|10U:20(qc=5)
REM Fe 3|2.2|2.0|1.0|8|9|10|40:41:32(qc=5)
REM 
CELL 1.54180    7.83839    7.83839    6.78336   65.10525   65.10525   76.90877
LATT -1
SFAC Li O  S  Fe 
Li     1  0.5365310000000 -0.1341110000000  0.2777930000000 1.0   0.00
Li     1 -0.1341110000000  0.5365310000000  0.2777930000000 1.0   0.00
Li     1  0.1443160000000 -0.3124850000000  0.3656300000000 1.0   0.02
Li     1 -0.3124850000000  0.1443160000000  0.3656300000000 1.0   0.02
Li     1  0.4210080000000  0.1747900000000  0.0291240000000 1.0  -0.04
Li     1  0.1747900000000  0.4210080000000  0.0291240000000 1.0  -0.04
Li     1 -0.2881280000000  0.2242660000000 -0.2972450000000 1.0   0.00
Li     1  0.2242660000000 -0.2881280000000 -0.2972450000000 1.0   0.00
Li     1 -0.3182470000000 -0.3182470000000 -0.3542720000000 1.0   0.01
O      2 -0.3375010000000  0.3703970000000  0.4322730000000 1.0  -0.23
O      2  0.3703970000000 -0.3375010000000  0.4322730000000 1.0  -0.23
O      2 -0.4440050000000 -0.0743270000000 -0.4719010000000 1.0  -0.34
O      2 -0.0743270000000 -0.4440050000000 -0.4719010000000 1.0  -0.34
O      2 -0.0009550000000 -0.4203510000000 -0.0697310000000 1.0  -0.40
O      2 -0.4203510000000 -0.0009550000000 -0.0697310000000 1.0  -0.40
S      3  0.3367860000000 -0.3583490000000  0.0262410000000 1.0  -0.17
S      3 -0.3583490000000  0.3367860000000  0.0262410000000 1.0  -0.17
S      3  0.1569850000000  0.1569850000000 -0.0471520000000 1.0  -0.28
Fe     4  0.4268470000000 -0.0507190000000 -0.1814320000000 1.0  -3.81
Fe     4 -0.0507190000000  0.4268470000000 -0.1814320000000 1.0  -3.81
Fe     4  0.5060580000000  0.5060580000000  0.2800210000000 1.0  -2.79
END
