TITL LFSO-Li4Fe3S3O2-200926-165050-808543 -0.2683 439.313311 -1.03517090E+004 -17.0193 17.8859 24 (Cmm2) n - 1
REM
REM Run started: Sun, 27 Sep 2020 10:38:23 +0100 in /lustre/scratch/uccabz1/launch_tmp/launcher_2020-09-27-09-00-00-720764
REM CASTEP 20.1 from code version af48c487+ pr-geom-scf-spinfix Tue Jun 2 15:39:59 2020 +0100
REM Functional Perdew Burke Ernzerhof Relativity Koelling-Harmon Dispersion off
REM Cut-off 340.0000 eV Grid scale 1.7500 Gmax 16.5316 1/A FBSC none
REM MP grid 2 2 3 Offset 0.000 0.000 0.000 No. kpts 4 Spacing 0.07
REM Total runtime: 62885.2 s
REM Overall efficiency: 93.0833 %
REM
REM
REM
REM compiler GCC version 4.9.2
REM options -cpp -iprefix /lustre/shared/ucl/apps/gcc/4.9.2/bin/../lib/gcc/x86_64-unknown-linux-gnu/4.9.2/ -mtune=corei7 -march=x86-64 -g -Og
REM COMMAND_LINE
REM seed -1776746039 1029203489 549812088 -2045401905 2123067989 -1913332278 -526127452 1312884575 -1048710738 342961128 1224231959 115367795
REM
REM S 3|1.8|5|6|7|30:31:32(qc=5)
REM O 2|1.5|12|13|15|20:21(qc=5)
REM Li 1|1.3|8|9|10|10U:20(qc=5)
REM Fe 3|2.2|2.0|1.0|8|9|10|40:41:32(qc=5)
REM 
CELL 1.54180    8.69023    8.69023    6.09451   90.00000   90.00000  107.35146
LATT -1
SFAC Li O  S  Fe 
Li     1 -0.0950420000000  0.3659340000000  0.2400090000000 1.0   0.00
Li     1  0.0950420000000 -0.3659340000000  0.2400090000000 1.0   0.00
Li     1 -0.3659340000000  0.0950420000000  0.2400090000000 1.0   0.00
Li     1  0.3659340000000 -0.0950420000000  0.2400090000000 1.0   0.00
Li     1  0.0085080000000  0.3586390000000 -0.1445150000000 1.0  -0.02
Li     1 -0.0085080000000 -0.3586390000000 -0.1445150000000 1.0  -0.02
Li     1 -0.3586390000000 -0.0085080000000 -0.1445150000000 1.0  -0.02
Li     1  0.3586390000000  0.0085080000000 -0.1445150000000 1.0  -0.02
O      2 -0.5351280000000 -0.1616430000000 -0.0171350000000 1.0  -0.25
O      2  0.5351280000000  0.1616430000000 -0.0171350000000 1.0  -0.25
O      2  0.1616430000000  0.5351280000000 -0.0171350000000 1.0  -0.25
O      2 -0.1616430000000 -0.5351280000000 -0.0171350000000 1.0  -0.25
S      3 -0.1482730000000 -0.3750390000000  0.4530460000000 1.0  -0.07
S      3  0.1482730000000  0.3750390000000  0.4530460000000 1.0  -0.07
S      3  0.3750390000000  0.1482730000000  0.4530460000000 1.0  -0.07
S      3 -0.3750390000000 -0.1482730000000  0.4530460000000 1.0  -0.07
S      3  0.1079520000000 -0.1079520000000  0.1147600000000 1.0  -0.03
S      3 -0.1079520000000  0.1079520000000  0.1147600000000 1.0  -0.03
Fe     4 -0.4676080000000 -0.2905110000000  0.1549650000000 1.0  -2.65
Fe     4  0.4676080000000  0.2905110000000  0.1549650000000 1.0  -2.65
Fe     4  0.2905110000000  0.4676080000000  0.1549650000000 1.0  -2.65
Fe     4 -0.2905110000000 -0.4676080000000  0.1549650000000 1.0  -2.65
Fe     4  0.1345220000000  0.1345220000000  0.2890000000000 1.0  -2.51
Fe     4 -0.1345220000000 -0.1345220000000  0.2890000000000 1.0  -2.51
END
