TITL LFSO-LiFe3S2O3-200909-190344-2344a5 -0.0686 293.027557 -9.41850625E+003 -0.347259E-01 0.540302E-01 18 (P2/c) n - 1
REM
REM Run started: Thu, 10 Sep 2020 00:00:07 +0100 in /lustre/scratch/uccabz1/launch_tmp/launcher_2020-09-09-18-03-42-850763
REM CASTEP 20.1 from code version af48c487+ pr-geom-scf-spinfix Tue Jun 2 15:39:59 2020 +0100
REM Functional Perdew Burke Ernzerhof Relativity Koelling-Harmon Dispersion off
REM Cut-off 340.0000 eV Grid scale 1.7500 Gmax 16.5316 1/A FBSC none
REM MP grid 3 2 3 Offset 0.000 0.000 0.000 No. kpts 6 Spacing 0.07
REM Total runtime: 21713.1 s
REM Overall efficiency: 95.1429 %
REM
REM
REM
REM compiler GCC version 4.9.2
REM options -cpp -iprefix /lustre/shared/ucl/apps/gcc/4.9.2/bin/../lib/gcc/x86_64-unknown-linux-gnu/4.9.2/ -mtune=corei7 -march=x86-64 -g -Og
REM COMMAND_LINE
REM seed -309830442 1695786335 1537134632 979971404 -26544818 -1317783113 -71919438 920302842 1111912017 89054311 -498055471 -190875141
REM
REM S 3|1.8|5|6|7|30:31:32(qc=5)
REM O 2|1.5|12|13|15|20:21(qc=5)
REM Li 1|1.3|8|9|10|10U:20(qc=5)
REM Fe 3|2.2|2.0|1.0|8|9|10|40:41:32(qc=5)
REM 
CELL 1.54180    4.90183    9.75620    6.25887   78.23120   90.00000   90.00000
LATT -1
SFAC Li O  S  Fe 
Li     1 -0.2354320000000  0.2500000000000  0.5000000000000 1.0   0.00
Li     1  0.2354320000000 -0.2500000000000  0.5000000000000 1.0   0.00
O      2 -0.0072480000000 -0.3579220000000  0.3631330000000 1.0  -0.00
O      2 -0.0072480000000 -0.1420780000000 -0.3631330000000 1.0  -0.00
O      2  0.0072480000000  0.3579220000000 -0.3631330000000 1.0  -0.00
O      2  0.0072480000000  0.1420780000000  0.3631330000000 1.0  -0.00
O      2 -0.5000000000000  0.0000000000000  0.0000000000000 1.0  -0.00
O      2  0.5000000000000 -0.5000000000000  0.0000000000000 1.0  -0.00
S      3  0.4900730000000  0.4145470000000  0.2844600000000 1.0   0.00
S      3  0.4900730000000  0.0854530000000 -0.2844600000000 1.0   0.00
S      3 -0.4900730000000 -0.4145470000000 -0.2844600000000 1.0   0.00
S      3 -0.4900730000000 -0.0854530000000  0.2844600000000 1.0   0.00
Fe     4  0.2423520000000  0.4958050000000  0.5042780000000 1.0   0.00
Fe     4  0.2423520000000  0.0041950000000 -0.5042780000000 1.0   0.00
Fe     4 -0.2423520000000 -0.4958050000000 -0.5042780000000 1.0   0.00
Fe     4 -0.2423520000000 -0.0041950000000  0.5042780000000 1.0   0.00
Fe     4 -0.2450350000000 -0.2500000000000 -0.5000000000000 1.0  -0.02
Fe     4  0.2450350000000  0.2500000000000  0.5000000000000 1.0  -0.02
END
