TITL LFSO-Li3FeS2O-200911-195443-8c0852 -0.0704 196.637034 -5.01769550E+003 0.246490E-02 0.161545E-01 14 (R3) n - 1
REM
REM Run started: Fri, 11 Sep 2020 23:34:16 +0100 in /lustre/scratch/uccabz1/launch_tmp/launcher_2020-09-11-18-54-41-413235
REM CASTEP 20.1 from code version af48c487+ pr-geom-scf-spinfix Tue Jun 2 15:39:59 2020 +0100
REM Functional Perdew Burke Ernzerhof Relativity Koelling-Harmon Dispersion off
REM Cut-off 340.0000 eV Grid scale 1.7500 Gmax 16.5316 1/A FBSC none
REM MP grid 3 3 3 Offset 0.000 0.000 0.000 No. kpts 6 Spacing 0.07
REM Total runtime: 13472.5 s
REM Overall efficiency: 96.875 %
REM
REM
REM
REM compiler GCC version 4.9.2
REM options -cpp -iprefix /lustre/shared/ucl/apps/gcc/4.9.2/bin/../lib/gcc/x86_64-unknown-linux-gnu/4.9.2/ -mtune=corei7 -march=x86-64 -g -Og
REM COMMAND_LINE
REM seed 210969648 -1810983372 1051846392 1868063254 -741519039 -1101363287 -1302014325 589286680 1143262697 1810025386 -859544300 686768872
REM
REM S 3|1.8|5|6|7|30:31:32(qc=5)
REM O 2|1.5|12|13|15|20:21(qc=5)
REM Li 1|1.3|8|9|10|10U:20(qc=5)
REM Fe 3|2.2|2.0|1.0|8|9|10|40:41:32(qc=5)
REM 
CELL 1.54180    6.20738    6.20738    6.20738   67.63795   67.63795   67.63795
LATT -1
SFAC Li O  S  Fe 
Li     1  0.5323670000000 -0.2789870000000  0.1750160000000 1.0
Li     1  0.1750160000000  0.5323670000000 -0.2789870000000 1.0
Li     1 -0.2789870000000  0.1750160000000  0.5323670000000 1.0
Li     1 -0.0057940000000 -0.1998470000000  0.2180650000000 1.0
Li     1  0.2180650000000 -0.0057940000000 -0.1998470000000 1.0
Li     1 -0.1998470000000  0.2180650000000 -0.0057940000000 1.0
O      2  0.4848010000000  0.4848010000000  0.4848010000000 1.0
O      2  0.1046390000000  0.1046390000000  0.1046390000000 1.0
S      3  0.5189520000000 -0.0140800000000 -0.5943250000000 1.0
S      3 -0.5943250000000  0.5189520000000 -0.0140800000000 1.0
S      3 -0.0140800000000 -0.5943250000000  0.5189520000000 1.0
S      3 -0.1414380000000 -0.1414380000000 -0.1414380000000 1.0
Fe     4  0.2320120000000  0.2320120000000  0.2320120000000 1.0
Fe     4 -0.3910860000000 -0.3910860000000 -0.3910860000000 1.0
END
