TITL LFSO-Li4Fe3S3O2-200926-111110-dbde8e 0.1064 391.070722 -1.03552839E+004 -20.3786 20.8884 24 (C2) n - 1
REM
REM Run started: Mon, 28 Sep 2020 19:06:51 +0100 in /lustre/scratch/uccabz1/launch_tmp/launcher_2020-09-28-13-04-36-494686
REM CASTEP 20.1 from code version af48c487+ pr-geom-scf-spinfix Tue Jun 2 15:39:59 2020 +0100
REM Functional Perdew Burke Ernzerhof Relativity Koelling-Harmon Dispersion off
REM Cut-off 340.0000 eV Grid scale 1.7500 Gmax 16.5316 1/A FBSC none
REM MP grid 3 3 3 Offset 0.000 0.000 0.000 No. kpts 10 Spacing 0.07
REM Total runtime: 176564 s
REM Overall efficiency: 78.6667 %
REM
REM
REM
REM compiler GCC version 4.9.2
REM options -cpp -iprefix /lustre/shared/ucl/apps/gcc/4.9.2/bin/../lib/gcc/x86_64-unknown-linux-gnu/4.9.2/ -mtune=corei7 -march=x86-64 -g -Og
REM COMMAND_LINE
REM seed 260878448 -448062878 1632051201 -22100625 139488972 -1424471825 -2071901329 -1259328678 -594925532 767982780 -657860966 748812535
REM
REM S 3|1.8|5|6|7|30:31:32(qc=5)
REM O 2|1.5|12|13|15|20:21(qc=5)
REM Li 1|1.3|8|9|10|10U:20(qc=5)
REM Fe 3|2.2|2.0|1.0|8|9|10|40:41:32(qc=5)
REM 
CELL 1.54180    8.97733    8.97733   12.05965   39.80018   39.80018   48.11499
LATT -1
SFAC Li O  S  Fe 
Li     1  0.1747560000000 -0.4098550000000 -0.5566500000000 1.0   0.05
Li     1  0.4098550000000 -0.1747560000000  0.5566500000000 1.0   0.05
Li     1 -0.1505850000000  0.2761370000000  0.1606690000000 1.0   0.01
Li     1 -0.2761370000000  0.1505850000000 -0.1606690000000 1.0   0.01
Li     1  0.1221230000000  0.2545450000000  0.4376380000000 1.0   0.02
Li     1 -0.2545450000000 -0.1221230000000 -0.4376380000000 1.0   0.02
Li     1 -0.0315400000000 -0.2205490000000 -0.1700850000000 1.0   0.02
Li     1  0.2205490000000  0.0315400000000  0.1700850000000 1.0   0.02
O      2  0.2421110000000 -0.4635030000000  0.2065350000000 1.0  -0.29
O      2  0.4635030000000 -0.2421110000000 -0.2065350000000 1.0  -0.29
O      2  0.0723800000000  0.0349720000000 -0.3036380000000 1.0  -0.20
O      2 -0.0349720000000 -0.0723800000000  0.3036380000000 1.0  -0.20
S      3  0.4933050000000  0.2815400000000 -0.4814260000000 1.0  -0.14
S      3 -0.2815400000000 -0.4933050000000  0.4814260000000 1.0  -0.14
S      3 -0.0503870000000 -0.4557180000000 -0.2255300000000 1.0  -0.13
S      3  0.4557180000000  0.0503870000000  0.2255300000000 1.0  -0.13
S      3  0.2199560000000  0.4359780000000 -0.0632720000000 1.0  -0.09
S      3 -0.4359780000000 -0.2199560000000  0.0632720000000 1.0  -0.09
Fe     4  0.5513540000000 -0.3333510000000  0.3207230000000 1.0  -2.79
Fe     4  0.3333510000000 -0.5513540000000 -0.3207230000000 1.0  -2.79
Fe     4  0.3502450000000  0.4590940000000  0.0330850000000 1.0  -3.22
Fe     4 -0.4590940000000 -0.3502450000000 -0.0330850000000 1.0  -3.22
Fe     4 -0.0472890000000 -0.2516860000000  0.2870100000000 1.0  -3.43
Fe     4  0.2516860000000  0.0472890000000 -0.2870100000000 1.0  -3.43
END
