TITL LFSO-Li2Fe3S3O-200912-204609-645526 -0.2175 298.966323 -8.68180531E+003 7.51100 14.7182 18 (Cc) n - 1
REM
REM Run started: Sun, 13 Sep 2020 15:48:16 +0100 in /lustre/scratch/uccabz1/launch_tmp/launcher_2020-09-12-19-46-08-122614
REM CASTEP 20.1 from code version af48c487+ pr-geom-scf-spinfix Tue Jun 2 15:39:59 2020 +0100
REM Functional Perdew Burke Ernzerhof Relativity Koelling-Harmon Dispersion off
REM Cut-off 340.0000 eV Grid scale 1.7500 Gmax 16.5316 1/A FBSC none
REM MP grid 3 3 3 Offset 0.000 0.000 0.000 No. kpts 10 Spacing 0.07
REM Total runtime: 76804.7 s
REM Overall efficiency: 73.5833 %
REM
REM
REM
REM compiler GCC version 4.9.2
REM options -cpp -iprefix /lustre/shared/ucl/apps/gcc/4.9.2/bin/../lib/gcc/x86_64-unknown-linux-gnu/4.9.2/ -mtune=corei7 -march=x86-64 -g -Og
REM COMMAND_LINE
REM seed -771869861 731971061 -1429294045 -1995515882 -1649235489 1715826532 1075459187 -988108908 613767450 1451982688 -1814797300 1792371800
REM
REM S 3|1.8|5|6|7|30:31:32(qc=5)
REM O 2|1.5|12|13|15|20:21(qc=5)
REM Li 1|1.3|8|9|10|10U:20(qc=5)
REM Fe 3|2.2|2.0|1.0|8|9|10|40:41:32(qc=5)
REM 
CELL 1.54180    6.14344    9.24095    9.24095  144.18980   93.99609   93.99609
LATT -1
SFAC Li O  S  Fe 
Li     1  0.1417390000000 -0.1326390000000 -0.4850000000000 1.0  -0.01
Li     1 -0.3582610000000 -0.4850000000000 -0.1326390000000 1.0  -0.01
Li     1 -0.1470020000000  0.3771860000000  0.0869030000000 1.0  -0.00
Li     1  0.3529980000000  0.0869030000000  0.3771860000000 1.0  -0.00
O      2  0.1291670000000  0.5250830000000  0.2967660000000 1.0   0.22
O      2 -0.3708330000000  0.2967660000000  0.5250830000000 1.0   0.22
S      3 -0.3095970000000 -0.3046170000000  0.4762990000000 1.0   0.03
S      3  0.1904030000000  0.4762990000000 -0.3046170000000 1.0   0.03
S      3 -0.0225460000000 -0.1537120000000  0.2228640000000 1.0  -0.04
S      3 -0.5225460000000  0.2228640000000 -0.1537120000000 1.0  -0.04
S      3  0.2077370000000 -0.0231890000000 -0.0837690000000 1.0   0.03
S      3 -0.2922630000000 -0.0837690000000 -0.0231890000000 1.0   0.03
Fe     4  0.1404790000000 -0.4542740000000 -0.4835330000000 1.0   2.63
Fe     4 -0.3595210000000 -0.4835330000000 -0.4542740000000 1.0   2.63
Fe     4  0.5220010000000 -0.0558450000000 -0.2057330000000 1.0  -1.70
Fe     4  0.0220010000000 -0.2057330000000 -0.0558450000000 1.0  -1.70
Fe     4  0.3789040000000  0.3706900000000  0.1876290000000 1.0   2.56
Fe     4 -0.1210960000000  0.1876290000000  0.3706900000000 1.0   2.56
END
