TITL LFSO-Li2Fe3S3O-200912-194619-500ed6 0.0187 265.879588 -8.67631802E+003 -0.482402E-01 1.38930 18 (P3) n - 1
REM
REM Run started: Sun, 13 Sep 2020 05:55:46 +0100 in /lustre/scratch/uccabz1/launch_tmp/launcher_2020-09-12-18-46-18-128400
REM CASTEP 20.1 from code version af48c487+ pr-geom-scf-spinfix Tue Jun 2 15:39:59 2020 +0100
REM Functional Perdew Burke Ernzerhof Relativity Koelling-Harmon Dispersion off
REM Cut-off 340.0000 eV Grid scale 1.7500 Gmax 16.5316 1/A FBSC none
REM MP grid 3 3 3 Offset 0.000 0.000 0.000 No. kpts 8 Spacing 0.07
REM Total runtime: 40666.1 s
REM Overall efficiency: 98.4286 %
REM
REM
REM
REM compiler GCC version 4.9.2
REM options -cpp -iprefix /lustre/shared/ucl/apps/gcc/4.9.2/bin/../lib/gcc/x86_64-unknown-linux-gnu/4.9.2/ -mtune=corei7 -march=x86-64 -g -Og
REM COMMAND_LINE
REM seed 305785331 1848412940 1432620097 -632801997 -392766409 -319170444 814287552 943205238 -787612086 2078173961 -81720897 1163567902
REM
REM S 3|1.8|5|6|7|30:31:32(qc=5)
REM O 2|1.5|12|13|15|20:21(qc=5)
REM Li 1|1.3|8|9|10|10U:20(qc=5)
REM Fe 3|2.2|2.0|1.0|8|9|10|40:41:32(qc=5)
REM 
CELL 1.54180    6.39279    6.92998    6.92998  120.00000   90.00000   90.00000
LATT -1
SFAC Li O  S  Fe 
Li     1 -0.1761630000000  0.3492400000000  0.3910850000000 1.0  -0.00
Li     1 -0.1761630000000 -0.3910850000000 -0.0418450000000 1.0  -0.00
Li     1 -0.1761630000000  0.0418450000000 -0.3492400000000 1.0  -0.00
Li     1 -0.3720720000000  0.0000000000000 -0.0000000000000 1.0  -0.00
O      2 -0.4071790000000 -0.3333330000000  0.3333330000000 1.0  -0.01
O      2  0.1885190000000 -0.3333330000000  0.3333330000000 1.0  -0.01
S      3  0.3510130000000 -0.3220940000000 -0.1568600000000 1.0  -0.01
S      3  0.3510130000000  0.1568600000000 -0.1652340000000 1.0  -0.01
S      3  0.3510130000000  0.1652340000000  0.3220940000000 1.0  -0.01
S      3 -0.1119350000000 -0.0217100000000  0.2759450000000 1.0   0.02
S      3 -0.1119350000000 -0.2759450000000 -0.2976550000000 1.0   0.02
S      3 -0.1119350000000  0.2976550000000  0.0217100000000 1.0   0.02
Fe     4 -0.4353500000000 -0.0870420000000  0.3161620000000 1.0   0.03
Fe     4 -0.4353500000000 -0.3161620000000 -0.4032040000000 1.0   0.03
Fe     4 -0.4353500000000  0.4032040000000  0.0870420000000 1.0   0.03
Fe     4  0.2152670000000 -0.1897230000000 -0.3642040000000 1.0  -0.05
Fe     4  0.2152670000000  0.3642040000000  0.1744810000000 1.0  -0.05
Fe     4  0.2152670000000 -0.1744810000000  0.1897230000000 1.0  -0.05
END
