TITL LFSO-Li4FeSO2-200910-075312-032b18 -0.4220 118.243937 -2.84309192E+003 2.66668 2.98884 8 (P-1) n - 1
REM
REM Run started: Thu, 10 Sep 2020 10:06:25 +0100 in /lustre/scratch/uccabz1/launch_tmp/launcher_2020-09-10-06-53-09-883505
REM CASTEP 20.1 from code version af48c487+ pr-geom-scf-spinfix Tue Jun 2 15:39:59 2020 +0100
REM Functional Perdew Burke Ernzerhof Relativity Koelling-Harmon Dispersion off
REM Cut-off 340.0000 eV Grid scale 1.7500 Gmax 16.5316 1/A FBSC none
REM MP grid 3 4 4 Offset 0.000 0.000 0.000 No. kpts 24 Spacing 0.07
REM Total runtime: 9227.29 s
REM Overall efficiency: 95.0769 %
REM
REM
REM
REM compiler GCC version 4.9.2
REM options -cpp -iprefix /lustre/shared/ucl/apps/gcc/4.9.2/bin/../lib/gcc/x86_64-unknown-linux-gnu/4.9.2/ -mtune=corei7 -march=x86-64 -g -Og
REM COMMAND_LINE
REM seed 556054043 -1479680792 -481021964 2028550103 771785866 -23982807 1986708042 -32276368 1238974384 -865015221 -2106674329 1132715860
REM
REM S 3|1.8|5|6|7|30:31:32(qc=5)
REM O 2|1.5|12|13|15|20:21(qc=5)
REM Li 1|1.3|8|9|10|10U:20(qc=5)
REM Fe 3|2.2|2.0|1.0|8|9|10|40:41:32(qc=5)
REM 
CELL 1.54180    4.99001    6.20516    5.69839  131.83983  115.90550   72.98959
LATT -1
SFAC Li O  S  Fe 
Li     1 -0.1521400000000  0.6939060000000  0.1358500000000 1.0  -0.03
Li     1  0.1521400000000 -0.6939060000000 -0.1358500000000 1.0  -0.03
Li     1 -0.2473350000000  0.4629980000000 -0.5772890000000 1.0  -0.03
Li     1  0.2473350000000 -0.4629980000000  0.5772890000000 1.0  -0.03
O      2  0.0493520000000  0.6261150000000 -0.1434560000000 1.0   0.12
O      2 -0.0493520000000 -0.6261150000000  0.1434560000000 1.0   0.12
S      3 -0.5000000000000  0.0000000000000  0.0000000000000 1.0  -0.02
Fe     4  0.0000000000000  0.0000000000000  0.0000000000000 1.0   2.55
END
