TITL LFSO-Li4Fe2S2O3-200911-102143-a197e6 0.0232 442.097558 -8.89625568E+003 -12.0000 12.7671 22 (C2221) n - 1
REM
REM Run started: Fri, 11 Sep 2020 14:41:15 +0100 in /lustre/scratch/uccabz1/launch_tmp/launcher_2020-09-11-09-21-40-824231
REM CASTEP 20.1 from code version af48c487+ pr-geom-scf-spinfix Tue Jun 2 15:39:59 2020 +0100
REM Functional Perdew Burke Ernzerhof Relativity Koelling-Harmon Dispersion off
REM Cut-off 340.0000 eV Grid scale 1.7500 Gmax 16.5316 1/A FBSC none
REM MP grid 3 2 2 Offset 0.000 0.000 0.000 No. kpts 4 Spacing 0.07
REM Total runtime: 17875.2 s
REM Overall efficiency: 97.875 %
REM
REM
REM
REM compiler GCC version 4.9.2
REM options -cpp -iprefix /lustre/shared/ucl/apps/gcc/4.9.2/bin/../lib/gcc/x86_64-unknown-linux-gnu/4.9.2/ -mtune=corei7 -march=x86-64 -g -Og
REM COMMAND_LINE
REM seed -148962781 1569606995 -434567483 -2095710909 -1315102267 1136429944 -151424383 2006918943 1976533407 -1119658644 -811530023 -411974881
REM
REM S 3|1.8|5|6|7|30:31:32(qc=5)
REM O 2|1.5|12|13|15|20:21(qc=5)
REM Li 1|1.3|8|9|10|10U:20(qc=5)
REM Fe 3|2.2|2.0|1.0|8|9|10|40:41:32(qc=5)
REM 
CELL 1.54180    5.83894    8.71768    8.71768   85.05725   90.00000   90.00000
LATT -1
SFAC Li O  S  Fe 
Li     1  0.4745320000000 -0.1990570000000 -0.2155540000000 1.0   0.01
Li     1 -0.0254680000000  0.1990570000000  0.2155540000000 1.0   0.01
Li     1  0.0254680000000 -0.2155540000000 -0.1990570000000 1.0   0.01
Li     1 -0.4745320000000  0.2155540000000  0.1990570000000 1.0   0.01
Li     1  0.2987020000000 -0.4900680000000 -0.2166030000000 1.0   0.00
Li     1 -0.2012980000000  0.4900680000000  0.2166030000000 1.0   0.00
Li     1  0.2012980000000 -0.2166030000000 -0.4900680000000 1.0   0.00
Li     1 -0.2987020000000  0.2166030000000  0.4900680000000 1.0   0.00
O      2 -0.4975380000000 -0.2115250000000  0.0117490000000 1.0  -0.28
O      2  0.0024620000000  0.2115250000000 -0.0117490000000 1.0  -0.28
O      2 -0.0024620000000  0.0117490000000 -0.2115250000000 1.0  -0.28
O      2  0.4975380000000 -0.0117490000000  0.2115250000000 1.0  -0.28
O      2  0.2500000000000 -0.3058570000000 -0.3058570000000 1.0  -0.01
O      2 -0.2500000000000  0.3058570000000  0.3058570000000 1.0  -0.01
S      3 -0.5032700000000  0.3007280000000 -0.0678170000000 1.0  -0.01
S      3 -0.0032700000000 -0.3007280000000  0.0678170000000 1.0  -0.01
S      3  0.0032700000000 -0.0678170000000  0.3007280000000 1.0  -0.01
S      3  0.5032700000000  0.0678170000000 -0.3007280000000 1.0  -0.01
Fe     4 -0.2242440000000  0.1339960000000 -0.1339020000000 1.0  -2.72
Fe     4  0.2757560000000 -0.1339960000000  0.1339020000000 1.0  -2.72
Fe     4 -0.2757560000000 -0.1339020000000  0.1339960000000 1.0  -2.72
Fe     4  0.2242440000000  0.1339020000000 -0.1339960000000 1.0  -2.72
END
