TITL LFSO-Li2Fe2S2O-200913-132752-0eacf1 0.1078 308.039838 -6.34320421E+003 -6.66399 13.2382 14 (P3) n - 1
REM
REM Run started: Sun, 13 Sep 2020 18:35:18 +0100 in /lustre/scratch/uccabz1/launch_tmp/launcher_2020-09-13-15-57-15-871058
REM CASTEP 20.1 from code version af48c487+ pr-geom-scf-spinfix Tue Jun 2 15:39:59 2020 +0100
REM Functional Perdew Burke Ernzerhof Relativity Koelling-Harmon Dispersion off
REM Cut-off 340.0000 eV Grid scale 1.7500 Gmax 16.5316 1/A FBSC none
REM MP grid 3 3 2 Offset 0.000 0.000 0.000 No. kpts 5 Spacing 0.07
REM Total runtime: 16445.9 s
REM Overall efficiency: 77.3846 %
REM
REM
REM
REM compiler GCC version 4.9.2
REM options -cpp -iprefix /lustre/shared/ucl/apps/gcc/4.9.2/bin/../lib/gcc/x86_64-unknown-linux-gnu/4.9.2/ -mtune=corei7 -march=x86-64 -g -Og
REM COMMAND_LINE
REM seed 778640356 1254936965 1425530611 1498590242 -776771748 1541795170 499670505 1643873346 1550894087 -1161936019 936574949 1786859691
REM
REM S 3|1.8|5|6|7|30:31:32(qc=5)
REM O 2|1.5|12|13|15|20:21(qc=5)
REM Li 1|1.3|8|9|10|10U:20(qc=5)
REM Fe 3|2.2|2.0|1.0|8|9|10|40:41:32(qc=5)
REM 
CELL 1.54180    6.78547    6.78547    7.72533   90.00000   90.00000  120.00000
LATT -1
SFAC Li O  S  Fe 
Li     1 -0.2227820000000  0.0475720000000  0.3724640000000 1.0   0.02
Li     1  0.2703530000000  0.2227820000000  0.3724640000000 1.0   0.02
Li     1 -0.0475720000000 -0.2703530000000  0.3724640000000 1.0   0.02
Li     1 -0.0000000000000 -0.0000000000000  0.0792200000000 1.0   0.04
O      2 -0.0000000000000 -0.0000000000000 -0.1639980000000 1.0  -0.17
O      2 -0.0000000000000 -0.0000000000000  0.3043590000000 1.0   0.00
S      3 -0.0057220000000  0.4899460000000 -0.3814860000000 1.0  -0.11
S      3  0.4956680000000  0.0057220000000 -0.3814860000000 1.0  -0.11
S      3 -0.4899460000000 -0.4956680000000 -0.3814860000000 1.0  -0.11
S      3  0.3333330000000 -0.3333330000000  0.2217480000000 1.0   0.36
Fe     4 -0.1472300000000 -0.3099270000000 -0.2583190000000 1.0  -3.12
Fe     4 -0.1626970000000  0.1472300000000 -0.2583190000000 1.0  -3.12
Fe     4  0.3099270000000  0.1626970000000 -0.2583190000000 1.0  -3.12
Fe     4  0.3333330000000 -0.3333330000000  0.4969800000000 1.0   2.73
END
