TITL LFSO-LiFe3S3O2-200909-140429-a64416 0.0456 135.727835 -4.57702841E+003 5.13441 5.57949 9 (R3) n - 1
REM
REM Run started: Wed, 09 Sep 2020 16:36:38 +0100 in /lustre/scratch/uccabz1/launch_tmp/launcher_2020-09-09-13-04-27-498808
REM CASTEP 20.1 from code version af48c487+ pr-geom-scf-spinfix Tue Jun 2 15:39:59 2020 +0100
REM Functional Perdew Burke Ernzerhof Relativity Koelling-Harmon Dispersion off
REM Cut-off 340.0000 eV Grid scale 1.7500 Gmax 16.5316 1/A FBSC none
REM MP grid 4 4 3 Offset 0.000 0.000 0.000 No. kpts 24 Spacing 0.07
REM Total runtime: 9199.77 s
REM Overall efficiency: 94.8571 %
REM
REM
REM
REM compiler GCC version 4.9.2
REM options -cpp -iprefix /lustre/shared/ucl/apps/gcc/4.9.2/bin/../lib/gcc/x86_64-unknown-linux-gnu/4.9.2/ -mtune=corei7 -march=x86-64 -g -Og
REM COMMAND_LINE
REM seed -1090150807 189537252 -1314904276 151251318 -1998216263 -577817789 710717720 2449547 407834231 -510452853 -1421017275 -1337326104
REM
REM S 3|1.8|5|6|7|30:31:32(qc=5)
REM O 2|1.5|12|13|15|20:21(qc=5)
REM Li 1|1.3|8|9|10|10U:20(qc=5)
REM Fe 3|2.2|2.0|1.0|8|9|10|40:41:32(qc=5)
REM 
CELL 1.54180    5.14398    5.14398    6.62585   67.15900   67.15900   60.00000
LATT -1
SFAC Li O  S  Fe 
Li     1  0.2615050000000  0.2615050000000  0.2154860000000 1.0   0.02
O      2  0.0138490000000  0.0138490000000 -0.0415460000000 1.0   0.15
O      2 -0.3208820000000 -0.3208820000000 -0.0373550000000 1.0   0.18
S      3  0.1581080000000 -0.5222160000000  0.5564590000000 1.0  -0.01
S      3 -0.5222160000000 -0.1923520000000  0.5564590000000 1.0  -0.01
S      3 -0.1923520000000  0.1581080000000  0.5564590000000 1.0  -0.01
Fe     4  0.4057010000000  0.0604580000000 -0.2080840000000 1.0   1.61
Fe     4  0.0604580000000 -0.2580750000000 -0.2080840000000 1.0   1.61
Fe     4 -0.2580750000000  0.4057010000000 -0.2080840000000 1.0   1.61
END
