TITL LFSO-Li2Fe2SO3-200913-064814-384222 -0.0227 106.660413 -3.74413207E+003 7.69256 7.76259 8 (Pm) n - 1
REM
REM Run started: Sun, 13 Sep 2020 08:09:02 +0100 in /lustre/scratch/uccabz1/launch_tmp/launcher_2020-09-13-05-48-12-570552
REM CASTEP 20.1 from code version af48c487+ pr-geom-scf-spinfix Tue Jun 2 15:39:59 2020 +0100
REM Functional Perdew Burke Ernzerhof Relativity Koelling-Harmon Dispersion off
REM Cut-off 340.0000 eV Grid scale 1.7500 Gmax 16.5316 1/A FBSC none
REM MP grid 5 3 3 Offset 0.000 0.000 0.000 No. kpts 16 Spacing 0.07
REM Total runtime: 5343.25 s
REM Overall efficiency: 93.6364 %
REM
REM
REM
REM compiler GCC version 4.9.2
REM options -cpp -iprefix /lustre/shared/ucl/apps/gcc/4.9.2/bin/../lib/gcc/x86_64-unknown-linux-gnu/4.9.2/ -mtune=corei7 -march=x86-64 -g -Og
REM COMMAND_LINE
REM seed 2134681969 -1261948987 547310161 2071450043 736220672 927901866 1903583776 882550101 -427809967 1347160135 -6955995 363466227
REM
REM S 3|1.8|5|6|7|30:31:32(qc=5)
REM O 2|1.5|12|13|15|20:21(qc=5)
REM Li 1|1.3|8|9|10|10U:20(qc=5)
REM Fe 3|2.2|2.0|1.0|8|9|10|40:41:32(qc=5)
REM 
CELL 1.54180    3.18130    5.70476    5.98846   90.00000   90.00000  101.06771
LATT -1
SFAC Li O  S  Fe 
Li     1  0.3666710000000  0.0865090000000 -0.2218270000000 1.0   0.02
Li     1  0.3666710000000  0.0865090000000  0.2218270000000 1.0   0.02
O      2 -0.0695410000000  0.2762080000000  0.2428530000000 1.0   0.49
O      2 -0.0695410000000  0.2762080000000 -0.2428530000000 1.0   0.49
O      2 -0.8514620000000 -0.1954770000000  0.0000000000000 1.0   0.30
S      3  0.5663760000000 -0.2657730000000 -0.5000000000000 1.0   0.12
Fe     4  0.0349590000000 -0.4167070000000  0.2351880000000 1.0   3.12
Fe     4  0.0349590000000 -0.4167070000000 -0.2351880000000 1.0   3.12
END
