TITL LFSO-Li6FeSO3-200909-220934-648f3a 0.3448 324.119697 -7.36210754E+003 7.99847 8.41875 22 (P-1) n - 1
REM
REM Run started: Thu, 10 Sep 2020 07:56:22 +0100 in /lustre/scratch/uccabz1/launch_tmp/launcher_2020-09-10-06-27-10-902007
REM CASTEP 20.1 from code version af48c487+ pr-geom-scf-spinfix Tue Jun 2 15:39:59 2020 +0100
REM Functional Perdew Burke Ernzerhof Relativity Koelling-Harmon Dispersion off
REM Cut-off 340.0000 eV Grid scale 1.7500 Gmax 16.5316 1/A FBSC none
REM MP grid 5 2 2 Offset 0.000 0.000 0.000 No. kpts 10 Spacing 0.07
REM Total runtime: 33741.8 s
REM Overall efficiency: 80.2143 %
REM
REM
REM
REM compiler GCC version 4.9.2
REM options -cpp -iprefix /lustre/shared/ucl/apps/gcc/4.9.2/bin/../lib/gcc/x86_64-unknown-linux-gnu/4.9.2/ -mtune=corei7 -march=x86-64 -g -Og
REM COMMAND_LINE
REM seed -801507403 1888725073 -165834831 692242675 655571066 770129467 628429837 -1964278101 -1092042205 -1529297372 1602856252 2104463705
REM
REM S 3|1.8|5|6|7|30:31:32(qc=5)
REM O 2|1.5|12|13|15|20:21(qc=5)
REM Li 1|1.3|8|9|10|10U:20(qc=5)
REM Fe 3|2.2|2.0|1.0|8|9|10|40:41:32(qc=5)
REM 
CELL 1.54180    4.01801   10.17247    9.69336   68.85878   72.39890   62.80029
LATT -1
SFAC Li O  S  Fe 
Li     1 -0.3089390000000  0.3183690000000  0.5614070000000 1.0  -0.10
Li     1  0.3089390000000 -0.3183690000000 -0.5614070000000 1.0  -0.10
Li     1 -0.3543690000000 -0.4107610000000  0.0286980000000 1.0  -0.02
Li     1  0.3543690000000  0.4107610000000 -0.0286980000000 1.0  -0.02
Li     1 -0.4188880000000  0.0159220000000 -0.7522070000000 1.0  -0.00
Li     1  0.4188880000000 -0.0159220000000  0.7522070000000 1.0  -0.00
Li     1 -0.0254990000000  0.2294220000000  0.0656440000000 1.0   0.03
Li     1  0.0254990000000 -0.2294220000000 -0.0656440000000 1.0   0.03
Li     1 -0.3323770000000  0.0980270000000 -0.0264690000000 1.0  -0.01
Li     1  0.3323770000000 -0.0980270000000  0.0264690000000 1.0  -0.01
Li     1  0.2567610000000  0.3498990000000  0.2483380000000 1.0  -0.02
Li     1 -0.2567610000000 -0.3498990000000 -0.2483380000000 1.0  -0.02
O      2 -0.1206410000000  0.4404840000000 -0.1202670000000 1.0   0.21
O      2  0.1206410000000 -0.4404840000000  0.1202670000000 1.0   0.21
O      2  0.4463690000000  0.2172170000000  0.1256070000000 1.0   0.01
O      2 -0.4463690000000 -0.2172170000000 -0.1256070000000 1.0   0.01
O      2 -0.2001990000000 -0.1112060000000  0.0975260000000 1.0   0.31
O      2  0.2001990000000  0.1112060000000 -0.0975260000000 1.0   0.31
S      3  0.3002880000000  0.2370870000000 -0.4634750000000 1.0   0.11
S      3 -0.3002880000000 -0.2370870000000  0.4634750000000 1.0   0.11
Fe     4  0.0912820000000  0.3001880000000 -0.2334290000000 1.0   3.48
Fe     4 -0.0912820000000 -0.3001880000000  0.2334290000000 1.0   3.48
END
