TITL LFSO-LiFe3SO4-200909-001723-861364 0.0041 271.470115 -9.68669036E+003 -11.5261 12.0206 18 (Pm) n - 1
REM
REM Run started: Wed, 09 Sep 2020 13:50:12 +0100 in /lustre/scratch/uccabz1/launch_tmp/launcher_2020-09-08-23-17-21-325200
REM CASTEP 20.1 from code version af48c487+ pr-geom-scf-spinfix Tue Jun 2 15:39:59 2020 +0100
REM Functional Perdew Burke Ernzerhof Relativity Koelling-Harmon Dispersion off
REM Cut-off 340.0000 eV Grid scale 1.7500 Gmax 16.5316 1/A FBSC none
REM MP grid 4 3 2 Offset 0.000 0.000 0.000 No. kpts 6 Spacing 0.07
REM Total runtime: 31260.8 s
REM Overall efficiency: 97 %
REM
REM
REM
REM compiler GCC version 4.9.2
REM options -cpp -iprefix /lustre/shared/ucl/apps/gcc/4.9.2/bin/../lib/gcc/x86_64-unknown-linux-gnu/4.9.2/ -mtune=corei7 -march=x86-64 -g -Og
REM COMMAND_LINE
REM seed 495207614 480804823 1560381717 -2085348061 -236553533 26999619 1164845129 -1557335966 -774417842 370837927 608151722 1127131080
REM
REM S 3|1.8|5|6|7|30:31:32(qc=5)
REM O 2|1.5|12|13|15|20:21(qc=5)
REM Li 1|1.3|8|9|10|10U:20(qc=5)
REM Fe 3|2.2|2.0|1.0|8|9|10|40:41:32(qc=5)
REM 
CELL 1.54180    4.54442    4.80021   12.48391   90.00000   90.00000   94.54415
LATT -1
SFAC Li O  S  Fe 
Li     1  0.1893300000000 -0.0555490000000 -0.2018370000000 1.0  -0.00
Li     1  0.1893300000000 -0.0555490000000  0.2018370000000 1.0  -0.00
O      2 -0.2546960000000 -0.1780640000000  0.2137100000000 1.0  -0.32
O      2 -0.2546960000000 -0.1780640000000 -0.2137100000000 1.0  -0.32
O      2  0.1388710000000 -0.0549680000000  0.3666060000000 1.0  -0.07
O      2  0.1388710000000 -0.0549680000000 -0.3666060000000 1.0  -0.07
O      2 -0.4347340000000  0.4050790000000 -0.3812510000000 1.0  -0.08
O      2 -0.4347340000000  0.4050790000000  0.3812510000000 1.0  -0.08
O      2  0.3416610000000  0.2528480000000 -0.1164490000000 1.0  -0.02
O      2  0.3416610000000  0.2528480000000  0.1164490000000 1.0  -0.02
S      3 -0.3351910000000  0.3067090000000  0.0825060000000 1.0  -0.04
S      3 -0.3351910000000  0.3067090000000 -0.0825060000000 1.0  -0.04
Fe     4 -0.0979860000000  0.2274840000000 -0.4043870000000 1.0  -2.74
Fe     4 -0.0979860000000  0.2274840000000  0.4043870000000 1.0  -2.74
Fe     4  0.2911200000000 -0.3665620000000 -0.4206260000000 1.0  -0.71
Fe     4  0.2911200000000 -0.3665620000000  0.4206260000000 1.0  -0.71
Fe     4 -0.2055580000000 -0.2793620000000  0.3424040000000 1.0  -1.79
Fe     4 -0.2055580000000 -0.2793620000000 -0.3424040000000 1.0  -1.79
END
