TITL LFSO-Li4Fe2S4O-200910-171304-517c07 0.0441 392.669849 -8.35882576E+003 -15.0191 15.2460 22 (P2) n - 1
REM
REM Run started: Fri, 11 Sep 2020 01:05:57 +0100 in /lustre/scratch/uccabz1/launch_tmp/launcher_2020-09-10-16-13-02-632784
REM CASTEP 20.1 from code version af48c487+ pr-geom-scf-spinfix Tue Jun 2 15:39:59 2020 +0100
REM Functional Perdew Burke Ernzerhof Relativity Koelling-Harmon Dispersion off
REM Cut-off 340.0000 eV Grid scale 1.7500 Gmax 16.5316 1/A FBSC none
REM MP grid 4 3 2 Offset 0.000 0.000 0.000 No. kpts 6 Spacing 0.07
REM Total runtime: 28653.9 s
REM Overall efficiency: 97.5556 %
REM
REM
REM
REM compiler GCC version 4.9.2
REM options -cpp -iprefix /lustre/shared/ucl/apps/gcc/4.9.2/bin/../lib/gcc/x86_64-unknown-linux-gnu/4.9.2/ -mtune=corei7 -march=x86-64 -g -Og
REM COMMAND_LINE
REM seed 2128945093 831863815 -737825287 -1696895354 571749852 1928806126 1813812971 -131187337 -215473993 769963069 -1065461287 413855481
REM
REM S 3|1.8|5|6|7|30:31:32(qc=5)
REM O 2|1.5|12|13|15|20:21(qc=5)
REM Li 1|1.3|8|9|10|10U:20(qc=5)
REM Fe 3|2.2|2.0|1.0|8|9|10|40:41:32(qc=5)
REM 
CELL 1.54180    4.08215    6.79873   14.72622  106.10182   90.00000   90.00000
LATT -1
SFAC Li O  S  Fe 
Li     1 -0.1804990000000 -0.1533630000000 -0.2830290000000 1.0   0.03
Li     1 -0.1804990000000  0.1533630000000  0.2830290000000 1.0   0.03
Li     1  0.2759580000000 -0.3155070000000 -0.4172740000000 1.0  -0.02
Li     1  0.2759580000000  0.3155070000000  0.4172740000000 1.0  -0.02
Li     1 -0.1874470000000 -0.4036670000000  0.1692140000000 1.0   0.02
Li     1 -0.1874470000000  0.4036670000000 -0.1692140000000 1.0   0.02
Li     1  0.3017180000000 -0.5167030000000  0.2858910000000 1.0   0.00
Li     1  0.3017180000000  0.5167030000000 -0.2858910000000 1.0   0.00
O      2  0.3294310000000  0.1939790000000  0.2834400000000 1.0  -0.28
O      2  0.3294310000000 -0.1939790000000 -0.2834400000000 1.0  -0.28
S      3 -0.1826210000000  0.1009720000000 -0.1139360000000 1.0  -0.26
S      3 -0.1826210000000 -0.1009720000000  0.1139360000000 1.0  -0.26
S      3 -0.2063580000000  0.4668050000000 -0.3700430000000 1.0  -0.01
S      3 -0.2063580000000 -0.4668050000000  0.3700430000000 1.0  -0.01
S      3  0.3134080000000  0.4287380000000  0.1127990000000 1.0  -0.20
S      3  0.3134080000000 -0.4287380000000 -0.1127990000000 1.0  -0.20
S      3  0.0951570000000 -0.2280620000000  0.4410950000000 1.0   0.00
S      3  0.0951570000000  0.2280620000000 -0.4410950000000 1.0   0.00
Fe     4  0.3150750000000  0.1001660000000  0.1513150000000 1.0  -3.49
Fe     4  0.3150750000000 -0.1001660000000 -0.1513150000000 1.0  -3.49
Fe     4  0.3135090000000 -0.2641530000000  0.0484700000000 1.0  -3.32
Fe     4  0.3135090000000  0.2641530000000 -0.0484700000000 1.0  -3.32
END
