TITL LFSO-Li3Fe3SO5-200926-071215-74db5f 0.0237 367.356221 -1.13652077E+004 16.0564 17.7840 24 (P3) n - 1
REM
REM Run started: Sat, 26 Sep 2020 19:01:50 +0100 in /lustre/scratch/uccabz1/launch_tmp/launcher_2020-09-26-06-12-12-856975
REM CASTEP 20.1 from code version af48c487+ pr-geom-scf-spinfix Tue Jun 2 15:39:59 2020 +0100
REM Functional Perdew Burke Ernzerhof Relativity Koelling-Harmon Dispersion off
REM Cut-off 340.0000 eV Grid scale 1.7500 Gmax 16.5316 1/A FBSC none
REM MP grid 3 2 2 Offset 0.000 0.000 0.000 No. kpts 6 Spacing 0.07
REM Total runtime: 44450.7 s
REM Overall efficiency: 98.375 %
REM
REM
REM
REM compiler GCC version 4.9.2
REM options -cpp -iprefix /lustre/shared/ucl/apps/gcc/4.9.2/bin/../lib/gcc/x86_64-unknown-linux-gnu/4.9.2/ -mtune=corei7 -march=x86-64 -g -Og
REM COMMAND_LINE
REM seed -779824302 49899942 -80654150 907396850 -1630968872 1932920261 -808127432 -1120417170 -2003499712 -1498981204 -1016880507 128290164
REM
REM S 3|1.8|5|6|7|30:31:32(qc=5)
REM O 2|1.5|12|13|15|20:21(qc=5)
REM Li 1|1.3|8|9|10|10U:20(qc=5)
REM Fe 3|2.2|2.0|1.0|8|9|10|40:41:32(qc=5)
REM 
CELL 1.54180    5.83704    8.52476    8.52476  120.00000   90.00000   90.00000
LATT -1
SFAC Li O  S  Fe 
Li     1  0.2317520000000 -0.2990490000000  0.1470150000000 1.0   0.02
Li     1  0.2317520000000  0.4460640000000  0.2990490000000 1.0   0.02
Li     1  0.2317520000000 -0.1470150000000 -0.4460640000000 1.0   0.02
Li     1 -0.0840440000000  0.5078590000000 -0.0475600000000 1.0   0.00
Li     1 -0.0840440000000 -0.5554190000000 -0.5078590000000 1.0   0.00
Li     1 -0.0840440000000  0.0475600000000  0.5554190000000 1.0   0.00
O      2 -0.3050950000000 -0.4018950000000 -0.3109710000000 1.0   0.14
O      2 -0.3050950000000  0.0909240000000  0.4018950000000 1.0   0.14
O      2 -0.3050950000000  0.3109710000000 -0.0909240000000 1.0   0.14
O      2 -0.1006360000000 -0.2472550000000  0.1386930000000 1.0   0.36
O      2 -0.1006360000000  0.3859480000000  0.2472550000000 1.0   0.36
O      2 -0.1006360000000 -0.1386930000000 -0.3859480000000 1.0   0.36
O      2  0.2426360000000  0.3801780000000  0.4965750000000 1.0   0.15
O      2  0.2426360000000  0.1163960000000 -0.3801780000000 1.0   0.15
O      2  0.2426360000000 -0.4965750000000 -0.1163960000000 1.0   0.15
O      2  0.2900910000000 -0.3333330000000  0.3333330000000 1.0  -0.58
S      3  0.0289990000000 -0.0000000000000  0.0000000000000 1.0  -0.04
S      3 -0.4782860000000 -0.0000000000000  0.0000000000000 1.0   0.07
Fe     4 -0.2162010000000 -0.0526740000000  0.1671880000000 1.0   2.15
Fe     4 -0.2162010000000  0.2198620000000  0.0526740000000 1.0   2.15
Fe     4 -0.2162010000000 -0.1671880000000 -0.2198620000000 1.0   2.15
Fe     4  0.4197080000000  0.1942910000000  0.4905530000000 1.0   2.72
Fe     4  0.4197080000000  0.2962620000000 -0.1942910000000 1.0   2.72
Fe     4  0.4197080000000 -0.4905530000000 -0.2962620000000 1.0   2.72
END
