TITL LFSO-Li3Fe3S5O-200928-160541-9e9837 0.0297 228.282372 -5.14454625E+003 -0.563117E-02 0.951272E-02 12 (Imm2) n - 1
REM
REM Run started: Mon, 28 Sep 2020 22:27:37 +0100 in /lustre/scratch/uccabz1/launch_tmp/launcher_2020-09-28-15-05-39-545371
REM CASTEP 20.1 from code version af48c487+ pr-geom-scf-spinfix Tue Jun 2 15:39:59 2020 +0100
REM Functional Perdew Burke Ernzerhof Relativity Koelling-Harmon Dispersion off
REM Cut-off 340.0000 eV Grid scale 1.7500 Gmax 16.5316 1/A FBSC none
REM MP grid 3 3 3 Offset 0.000 0.000 0.000 No. kpts 8 Spacing 0.07
REM Total runtime: 23945.6 s
REM Overall efficiency: 97.3333 %
REM
REM
REM
REM compiler GCC version 4.9.2
REM options -cpp -iprefix /lustre/shared/ucl/apps/gcc/4.9.2/bin/../lib/gcc/x86_64-unknown-linux-gnu/4.9.2/ -mtune=corei7 -march=x86-64 -g -Og
REM COMMAND_LINE
REM seed 1224859018 -123717806 -1077922155 -1338190474 -174883569 1273570309 -1824260894 -1066248880 -1676443088 1676548980 -1880929467 2040693589
REM
REM S 3|1.8|5|6|7|30:31:32(qc=5)
REM O 2|1.5|12|13|15|20:21(qc=5)
REM Li 1|1.3|8|9|10|10U:20(qc=5)
REM Fe 3|2.2|2.0|1.0|8|9|10|40:41:32(qc=5)
REM 
CELL 1.54180    6.07160    6.86351    6.86351   72.81166   63.74862   63.74862
LATT -1
SFAC Li O  S  Fe 
Li     1 -0.3636420000000 -0.3516860000000  0.0789700000000 1.0
Li     1  0.6363580000000  0.0789700000000 -0.3516860000000 1.0
Li     1 -0.2397220000000  0.2397220000000  0.2397220000000 1.0
O      2  0.2019180000000 -0.2019180000000 -0.2019180000000 1.0
S      3 -0.3314560000000  0.3139380000000 -0.0847330000000 1.0
S      3  0.1022520000000 -0.0847330000000  0.3139380000000 1.0
S      3  0.1022520000000  0.3139380000000 -0.0847330000000 1.0
S      3 -0.3314560000000 -0.0847330000000  0.3139380000000 1.0
S      3  0.5353470000000 -0.5353470000000 -0.5353470000000 1.0
Fe     4 -0.6461640000000 -0.1985280000000  0.4908550000000 1.0
Fe     4  0.3538360000000  0.4908550000000 -0.1985280000000 1.0
Fe     4  0.0044800000000 -0.0044800000000 -0.0044800000000 1.0
END
