TITL LFSO-Li2Fe3S2O2-200920-192243-b7c419 -0.0048 116.339552 -4.47467095E+003 -8.75918 8.99883 9 (C2) n - 1
REM
REM Run started: Sun, 20 Sep 2020 22:59:38 +0100 in /lustre/scratch/uccabz1/launch_tmp/launcher_2020-09-20-18-22-41-997175
REM CASTEP 20.1 from code version af48c487+ pr-geom-scf-spinfix Tue Jun 2 15:39:59 2020 +0100
REM Functional Perdew Burke Ernzerhof Relativity Koelling-Harmon Dispersion off
REM Cut-off 340.0000 eV Grid scale 1.7500 Gmax 16.5316 1/A FBSC none
REM MP grid 5 3 3 Offset 0.000 0.000 0.000 No. kpts 16 Spacing 0.07
REM Total runtime: 13398 s
REM Overall efficiency: 96.2222 %
REM
REM
REM
REM compiler GCC version 4.9.2
REM options -cpp -iprefix /lustre/shared/ucl/apps/gcc/4.9.2/bin/../lib/gcc/x86_64-unknown-linux-gnu/4.9.2/ -mtune=corei7 -march=x86-64 -g -Og
REM COMMAND_LINE
REM seed -1729651909 1500817685 1432589505 494273123 -594176931 -453987334 1299067900 -89967402 -24208432 -1581531674 1513338877 526218043
REM
REM S 3|1.8|5|6|7|30:31:32(qc=5)
REM O 2|1.5|12|13|15|20:21(qc=5)
REM Li 1|1.3|8|9|10|10U:20(qc=5)
REM Fe 3|2.2|2.0|1.0|8|9|10|40:41:32(qc=5)
REM 
CELL 1.54180    4.01411    6.22862    6.22862  108.23612  111.21896  111.21896
LATT -1
SFAC Li O  S  Fe 
Li     1 -0.3935630000000  0.5168860000000  0.2394560000000 1.0   0.03
Li     1  0.3935630000000 -0.2394560000000 -0.5168860000000 1.0   0.03
O      2 -0.0055650000000 -0.1434980000000 -0.4251600000000 1.0  -0.22
O      2  0.0055650000000  0.4251600000000  0.1434980000000 1.0  -0.22
S      3 -0.4902390000000 -0.3550030000000 -0.1436310000000 1.0  -0.07
S      3  0.4902390000000  0.1436310000000  0.3550030000000 1.0  -0.07
Fe     4 -0.1218820000000 -0.5791720000000 -0.1798380000000 1.0  -2.58
Fe     4  0.1218820000000  0.1798380000000  0.5791720000000 1.0  -2.58
Fe     4  0.5000000000000  0.0771600000000 -0.0771600000000 1.0  -3.08
END
