TITL LFSO-Li5FeSO3-200910-042902-95c74f -0.0216 148.469337 -3.47770589E+003 2.96049 4.35271 10 (P2) n - 1
REM
REM Run started: Thu, 10 Sep 2020 05:56:23 +0100 in /lustre/scratch/uccabz1/launch_tmp/launcher_2020-09-10-03-29-00-105185
REM CASTEP 20.1 from code version af48c487+ pr-geom-scf-spinfix Tue Jun 2 15:39:59 2020 +0100
REM Functional Perdew Burke Ernzerhof Relativity Koelling-Harmon Dispersion off
REM Cut-off 340.0000 eV Grid scale 1.7500 Gmax 16.5316 1/A FBSC none
REM MP grid 5 2 3 Offset 0.000 0.000 0.000 No. kpts 10 Spacing 0.07
REM Total runtime: 5599.8 s
REM Overall efficiency: 90.2222 %
REM
REM
REM
REM compiler GCC version 4.9.2
REM options -cpp -iprefix /lustre/shared/ucl/apps/gcc/4.9.2/bin/../lib/gcc/x86_64-unknown-linux-gnu/4.9.2/ -mtune=corei7 -march=x86-64 -g -Og
REM COMMAND_LINE
REM seed -1180325382 -829257798 82985475 -1336111270 -2037177291 -1209678973 -1219875677 -876693449 -1283092413 -753235081 -287979654 -238575974
REM
REM S 3|1.8|5|6|7|30:31:32(qc=5)
REM O 2|1.5|12|13|15|20:21(qc=5)
REM Li 1|1.3|8|9|10|10U:20(qc=5)
REM Fe 3|2.2|2.0|1.0|8|9|10|40:41:32(qc=5)
REM 
CELL 1.54180    3.02741    8.15874    6.02754   90.00000   90.00000   85.74758
LATT -1
SFAC Li O  S  Fe 
Li     1 -0.0252630000000  0.1485410000000  0.0158860000000 1.0   0.02
Li     1  0.0252630000000 -0.1485410000000  0.0158860000000 1.0   0.02
Li     1  0.4139350000000 -0.1488650000000  0.3677050000000 1.0   0.02
Li     1 -0.4139350000000  0.1488650000000  0.3677050000000 1.0   0.02
Li     1 -0.0000000000000 -0.5000000000000  0.0494680000000 1.0  -0.13
O      2  0.0632780000000  0.3289480000000  0.2665680000000 1.0   0.27
O      2 -0.0632780000000 -0.3289480000000  0.2665680000000 1.0   0.27
O      2 -0.0000000000000  0.0000000000000  0.2461580000000 1.0  -0.38
S      3 -0.5000000000000  0.0000000000000 -0.2447220000000 1.0  -0.21
Fe     4 -0.0000000000000  0.5000000000000 -0.5552780000000 1.0   3.04
END
