TITL LFSO-Li2Fe4S3O2-200912-044322-e5e292 0.0525 165.567696 -5.64176494E+003 14.6370 14.7600 11 (P-1) n - 1
REM
REM Run started: Sat, 12 Sep 2020 08:10:41 +0100 in /lustre/scratch/uccabz1/launch_tmp/launcher_2020-09-12-05-27-47-242914
REM CASTEP 20.1 from code version af48c487+ pr-geom-scf-spinfix Tue Jun 2 15:39:59 2020 +0100
REM Functional Perdew Burke Ernzerhof Relativity Koelling-Harmon Dispersion off
REM Cut-off 340.0000 eV Grid scale 1.7500 Gmax 16.5316 1/A FBSC none
REM MP grid 4 4 3 Offset 0.000 0.000 0.000 No. kpts 24 Spacing 0.07
REM Total runtime: 9015.1 s
REM Overall efficiency: 96.5556 %
REM
REM
REM
REM compiler GCC version 4.9.2
REM options -cpp -iprefix /lustre/shared/ucl/apps/gcc/4.9.2/bin/../lib/gcc/x86_64-unknown-linux-gnu/4.9.2/ -mtune=corei7 -march=x86-64 -g -Og
REM COMMAND_LINE
REM seed -1491465314 545192395 -1072009795 -2129003173 -1274838353 -1207870459 2009635057 -23896156 -16896710 1815529264 344363049 -566919567
REM
REM S 3|1.8|5|6|7|30:31:32(qc=5)
REM O 2|1.5|12|13|15|20:21(qc=5)
REM Li 1|1.3|8|9|10|10U:20(qc=5)
REM Fe 3|2.2|2.0|1.0|8|9|10|40:41:32(qc=5)
REM 
CELL 1.54180    6.38291    4.07801    9.76627   79.47622  136.10552  109.44018
LATT -1
SFAC Li O  S  Fe 
Li     1  0.3489320000000  0.0807270000000 -0.2687360000000 1.0  -0.03
Li     1 -0.3489320000000 -0.0807270000000  0.2687360000000 1.0  -0.03
O      2  0.4533930000000 -0.2219520000000  0.3633390000000 1.0   0.35
O      2 -0.4533930000000  0.2219520000000 -0.3633390000000 1.0   0.35
S      3  0.1331640000000 -0.0911610000000 -0.1133650000000 1.0   0.25
S      3 -0.1331640000000  0.0911610000000  0.1133650000000 1.0   0.25
S      3  0.0000000000000  0.5000000000000 -0.5000000000000 1.0   0.19
Fe     4  0.4466970000000  0.2675360000000  0.3786220000000 1.0   3.29
Fe     4 -0.4466970000000 -0.2675360000000 -0.3786220000000 1.0   3.29
Fe     4  0.0242710000000 -0.3900120000000  0.2613270000000 1.0   3.37
Fe     4 -0.0242710000000  0.3900120000000 -0.2613270000000 1.0   3.37
END
