TITL LFSO-Li4Fe2S3O2-200911-065621-8905a9 0.0254 146.962692 -4.30908076E+003 7.85380 8.04499 11 (P2/m) n - 1
REM
REM Run started: Fri, 11 Sep 2020 09:31:27 +0100 in /lustre/scratch/uccabz1/launch_tmp/launcher_2020-09-11-05-56-19-243138
REM CASTEP 20.1 from code version af48c487+ pr-geom-scf-spinfix Tue Jun 2 15:39:59 2020 +0100
REM Functional Perdew Burke Ernzerhof Relativity Koelling-Harmon Dispersion off
REM Cut-off 340.0000 eV Grid scale 1.7500 Gmax 16.5316 1/A FBSC none
REM MP grid 4 4 3 Offset 0.000 0.000 0.000 No. kpts 12 Spacing 0.07
REM Total runtime: 10089.1 s
REM Overall efficiency: 85.3 %
REM
REM
REM
REM compiler GCC version 4.9.2
REM options -cpp -iprefix /lustre/shared/ucl/apps/gcc/4.9.2/bin/../lib/gcc/x86_64-unknown-linux-gnu/4.9.2/ -mtune=corei7 -march=x86-64 -g -Og
REM COMMAND_LINE
REM seed 448142425 -280365935 -1632276700 861938188 1629248158 318653838 2133348906 377656776 1481607538 -1675697332 -4583152 1921673939
REM
REM S 3|1.8|5|6|7|30:31:32(qc=5)
REM O 2|1.5|12|13|15|20:21(qc=5)
REM Li 1|1.3|8|9|10|10U:20(qc=5)
REM Fe 3|2.2|2.0|1.0|8|9|10|40:41:32(qc=5)
REM 
CELL 1.54180    3.80924    6.34704    9.49420  140.19068   90.00000   90.00000
LATT -1
SFAC Li O  S  Fe 
Li     1 -0.2671070000000 -0.6963450000000  0.1854960000000 1.0  -0.05
Li     1 -0.2671070000000  0.6963450000000 -0.1854960000000 1.0  -0.05
Li     1  0.2671070000000  0.6963450000000 -0.1854960000000 1.0  -0.05
Li     1  0.2671070000000 -0.6963450000000  0.1854960000000 1.0  -0.05
O      2 -0.5000000000000 -0.0818570000000  0.0891930000000 1.0   0.22
O      2 -0.5000000000000  0.0818570000000 -0.0891930000000 1.0   0.22
S      3 -0.5000000000000 -0.2007710000000  0.3270910000000 1.0   0.11
S      3  0.5000000000000  0.2007710000000 -0.3270910000000 1.0   0.11
S      3 -0.0000000000000  0.5000000000000 -0.5000000000000 1.0   0.28
Fe     4  0.0000000000000  0.0790410000000 -0.2016020000000 1.0   3.56
Fe     4 -0.0000000000000 -0.0790410000000  0.2016020000000 1.0   3.56
END
