TITL LFSO-Li2Fe4S2O3-200912-075536-7b1049 -0.0121 184.316102 -5.77404857E+003 -9.89297 10.5938 11 (P3) n - 1
REM
REM Run started: Sat, 12 Sep 2020 11:05:39 +0100 in /lustre/scratch/uccabz1/launch_tmp/launcher_2020-09-12-06-55-33-865464
REM CASTEP 20.1 from code version af48c487+ pr-geom-scf-spinfix Tue Jun 2 15:39:59 2020 +0100
REM Functional Perdew Burke Ernzerhof Relativity Koelling-Harmon Dispersion off
REM Cut-off 340.0000 eV Grid scale 1.7500 Gmax 16.5316 1/A FBSC none
REM MP grid 3 3 3 Offset 0.000 0.000 0.000 No. kpts 8 Spacing 0.07
REM Total runtime: 12296.8 s
REM Overall efficiency: 96.8571 %
REM
REM
REM
REM compiler GCC version 4.9.2
REM options -cpp -iprefix /lustre/shared/ucl/apps/gcc/4.9.2/bin/../lib/gcc/x86_64-unknown-linux-gnu/4.9.2/ -mtune=corei7 -march=x86-64 -g -Og
REM COMMAND_LINE
REM seed 2051979488 -909134970 -289082294 303705527 786224113 1232583768 2102365933 -910929225 572815262 1970707606 772255256 -827615892
REM
REM S 3|1.8|5|6|7|30:31:32(qc=5)
REM O 2|1.5|12|13|15|20:21(qc=5)
REM Li 1|1.3|8|9|10|10U:20(qc=5)
REM Fe 3|2.2|2.0|1.0|8|9|10|40:41:32(qc=5)
REM 
CELL 1.54180    5.58194    5.58194    6.83066   90.00000   90.00000  120.00000
LATT -1
SFAC Li O  S  Fe 
Li     1 -0.3333330000000  0.3333330000000  0.3708070000000 1.0  -0.02
Li     1  0.0000000000000 -0.0000000000000 -0.4865800000000 1.0  -0.01
O      2 -0.2699470000000  0.0483540000000  0.2819150000000 1.0  -0.20
O      2  0.3183020000000  0.2699470000000  0.2819150000000 1.0  -0.20
O      2 -0.0483540000000 -0.3183020000000  0.2819150000000 1.0  -0.20
S      3  0.3333330000000 -0.3333330000000 -0.1716420000000 1.0  -0.13
S      3  0.0000000000000 -0.0000000000000 -0.1331010000000 1.0   0.05
Fe     4  0.4155580000000  0.3717460000000  0.0214090000000 1.0  -2.91
Fe     4 -0.0438120000000 -0.4155580000000  0.0214090000000 1.0  -2.91
Fe     4 -0.3717460000000  0.0438120000000  0.0214090000000 1.0  -2.91
Fe     4  0.0000000000000 -0.0000000000000  0.1724000000000 1.0  -0.42
END
