TITL LFSO-Li4FeSO2-200910-081415-3c5d4a 0.0054 264.023994 -2.84016725E+003 -3.99600 4.08883 8 (Pmm2) n - 1
REM
REM Run started: Thu, 10 Sep 2020 09:35:39 +0100 in /lustre/scratch/uccabz1/launch_tmp/launcher_2020-09-10-07-14-14-046291
REM CASTEP 20.1 from code version af48c487+ pr-geom-scf-spinfix Tue Jun 2 15:39:59 2020 +0100
REM Functional Perdew Burke Ernzerhof Relativity Koelling-Harmon Dispersion off
REM Cut-off 340.0000 eV Grid scale 1.7500 Gmax 16.5316 1/A FBSC none
REM MP grid 2 4 2 Offset 0.000 0.000 0.000 No. kpts 2 Spacing 0.07
REM Total runtime: 4990.84 s
REM Overall efficiency: 87.7 %
REM
REM
REM
REM compiler GCC version 4.9.2
REM options -cpp -iprefix /lustre/shared/ucl/apps/gcc/4.9.2/bin/../lib/gcc/x86_64-unknown-linux-gnu/4.9.2/ -mtune=corei7 -march=x86-64 -g -Og
REM COMMAND_LINE
REM seed 1175034469 648782072 -938621701 1379605257 1935454499 -1449774868 621703245 -1204659977 -271875379 971216227 1090344503 417745579
REM
REM S 3|1.8|5|6|7|30:31:32(qc=5)
REM O 2|1.5|12|13|15|20:21(qc=5)
REM Li 1|1.3|8|9|10|10U:20(qc=5)
REM Fe 3|2.2|2.0|1.0|8|9|10|40:41:32(qc=5)
REM 
CELL 1.54180    7.71284    3.65810    9.35779   90.00000   90.00000   90.00000
LATT -1
SFAC Li O  S  Fe 
Li     1  0.1400270000000 -0.5289620000000 -0.1720590000000 1.0   0.01
Li     1 -0.1400270000000 -0.5289620000000  0.1720590000000 1.0   0.01
Li     1  0.1400270000000 -0.5289620000000  0.1720590000000 1.0   0.01
Li     1 -0.1400270000000 -0.5289620000000 -0.1720590000000 1.0   0.01
O      2  0.0000000000000  0.3326990000000 -0.3126370000000 1.0  -0.24
O      2  0.0000000000000  0.3326990000000  0.3126370000000 1.0  -0.24
S      3  0.0000000000000 -0.1276880000000  0.0000000000000 1.0  -0.01
Fe     4  0.0000000000000  0.3229850000000  0.5000000000000 1.0  -3.55
END
