TITL LFSO-Li3FeS2O-200911-184147-c56ee1 0.0144 338.071833 -5.01760243E+003 8.00000 8.19286 14 (Cm) n - 1
REM
REM Run started: Sat, 12 Sep 2020 01:09:13 +0100 in /lustre/scratch/uccabz1/launch_tmp/launcher_2020-09-11-17-41-44-584164
REM CASTEP 20.1 from code version af48c487+ pr-geom-scf-spinfix Tue Jun 2 15:39:59 2020 +0100
REM Functional Perdew Burke Ernzerhof Relativity Koelling-Harmon Dispersion off
REM Cut-off 340.0000 eV Grid scale 1.7500 Gmax 16.5316 1/A FBSC none
REM MP grid 3 3 3 Offset 0.000 0.000 0.000 No. kpts 10 Spacing 0.07
REM Total runtime: 25665.4 s
REM Overall efficiency: 77.8462 %
REM
REM
REM
REM compiler GCC version 4.9.2
REM options -cpp -iprefix /lustre/shared/ucl/apps/gcc/4.9.2/bin/../lib/gcc/x86_64-unknown-linux-gnu/4.9.2/ -mtune=corei7 -march=x86-64 -g -Og
REM COMMAND_LINE
REM seed 890227957 731844891 -2103995219 1140975040 1912923998 -412952494 750059574 -1063907629 253660967 -1106676081 868750013 -1824282275
REM
REM S 3|1.8|5|6|7|30:31:32(qc=5)
REM O 2|1.5|12|13|15|20:21(qc=5)
REM Li 1|1.3|8|9|10|10U:20(qc=5)
REM Fe 3|2.2|2.0|1.0|8|9|10|40:41:32(qc=5)
REM 
CELL 1.54180    7.49552    7.49552    6.81267   70.03484   70.03484   84.25616
LATT -1
SFAC Li O  S  Fe 
Li     1  0.0855500000000 -0.4414900000000  0.1279120000000 1.0   0.04
Li     1 -0.4414900000000  0.0855500000000  0.1279120000000 1.0   0.04
Li     1 -0.2634770000000  0.3887890000000 -0.1803000000000 1.0   0.01
Li     1  0.3887890000000 -0.2634770000000 -0.1803000000000 1.0   0.01
Li     1 -0.2666230000000  0.2179010000000  0.5255830000000 1.0   0.03
Li     1  0.2179010000000 -0.2666230000000  0.5255830000000 1.0   0.03
O      2 -0.4248510000000  0.2217980000000 -0.1759500000000 1.0   0.28
O      2  0.2217980000000 -0.4248510000000 -0.1759500000000 1.0   0.28
S      3 -0.1420400000000  0.2930410000000  0.1230330000000 1.0   0.24
S      3  0.2930410000000 -0.1420400000000  0.1230330000000 1.0   0.24
S      3  0.0261030000000 -0.5599520000000  0.5257010000000 1.0   0.24
S      3 -0.5599520000000  0.0261030000000  0.5257010000000 1.0   0.24
Fe     4  0.3816570000000  0.1035270000000 -0.1774490000000 1.0   3.15
Fe     4  0.1035270000000  0.3816570000000 -0.1774490000000 1.0   3.15
END
