TITL LFSO-Li3FeSO2-200911-155438-f2f00d -0.0154 87.962467 -2.64274117E+003 4.49724 4.52053 7 (Cmm2) n - 1
REM
REM Run started: Fri, 11 Sep 2020 16:04:21 +0100 in /lustre/scratch/uccabz1/launch_tmp/launcher_2020-09-11-14-54-36-403621
REM CASTEP 20.1 from code version af48c487+ pr-geom-scf-spinfix Tue Jun 2 15:39:59 2020 +0100
REM Functional Perdew Burke Ernzerhof Relativity Koelling-Harmon Dispersion off
REM Cut-off 340.0000 eV Grid scale 1.7500 Gmax 16.5316 1/A FBSC none
REM MP grid 3 4 4 Offset 0.000 0.000 0.000 No. kpts 12 Spacing 0.07
REM Total runtime: 619.4 s
REM Overall efficiency: 84.3333 %
REM
REM
REM
REM compiler GCC version 4.9.2
REM options -cpp -iprefix /lustre/shared/ucl/apps/gcc/4.9.2/bin/../lib/gcc/x86_64-unknown-linux-gnu/4.9.2/ -mtune=corei7 -march=x86-64 -g -Og
REM COMMAND_LINE
REM seed 2075551170 -1947229672 817103118 683676126 1921074198 721595576 -1049715607 591156428 154927806 -553260577 985479961 -998859583
REM
REM S 3|1.8|5|6|7|30:31:32(qc=5)
REM O 2|1.5|12|13|15|20:21(qc=5)
REM Li 1|1.3|8|9|10|10U:20(qc=5)
REM Fe 3|2.2|2.0|1.0|8|9|10|40:41:32(qc=5)
REM 
CELL 1.54180    5.85698    3.88308    3.88308   95.10987   90.00000   90.00000
LATT -1
SFAC Li O  S  Fe 
Li     1  0.1757230000000  0.2157090000000 -0.2157090000000 1.0   0.04
Li     1  0.1757230000000 -0.2157090000000  0.2157090000000 1.0   0.04
Li     1  0.5782160000000  0.0000000000000  0.0000000000000 1.0  -0.09
O      2  0.4311950000000  0.0000000000000 -0.5000000000000 1.0   0.24
O      2  0.4311950000000  0.5000000000000  0.0000000000000 1.0   0.24
S      3 -0.0939420000000  0.5000000000000  0.5000000000000 1.0   0.35
Fe     4 -0.4824220000000  0.5000000000000  0.5000000000000 1.0   3.69
END
