TITL LFSO-Li2Fe3SO3-200912-151517-34c358 2.2737 224.498027 -9.21521077E+003 6.41382 8.99038 18 (P21/m) n - 1
REM
REM Run started: Sun, 13 Sep 2020 20:23:18 +0100 in /lustre/scratch/uccabz1/launch_tmp/launcher_2020-09-13-16-02-19-813929
REM CASTEP 20.1 from code version af48c487+ pr-geom-scf-spinfix Tue Jun 2 15:39:59 2020 +0100
REM Functional Perdew Burke Ernzerhof Relativity Koelling-Harmon Dispersion off
REM Cut-off 340.0000 eV Grid scale 1.7500 Gmax 16.5316 1/A FBSC none
REM MP grid 6 2 2 Offset 0.000 0.000 0.000 No. kpts 6 Spacing 0.07
REM Total runtime: 94799.8 s
REM Overall efficiency: 97.6 %
REM
REM
REM
REM compiler GCC version 4.9.2
REM options -cpp -iprefix /lustre/shared/ucl/apps/gcc/4.9.2/bin/../lib/gcc/x86_64-unknown-linux-gnu/4.9.2/ -mtune=corei7 -march=x86-64 -g -Og
REM COMMAND_LINE
REM seed -623884971 2022906722 266152426 -1412060622 -789829980 -417080346 2071441363 1271795732 1809037166 -1374367511 767629041 -1539581702
REM
REM S 3|1.8|5|6|7|30:31:32(qc=5)
REM O 2|1.5|12|13|15|20:21(qc=5)
REM Li 1|1.3|8|9|10|10U:20(qc=5)
REM Fe 3|2.2|2.0|1.0|8|9|10|40:41:32(qc=5)
REM 
CELL 1.54180    2.79275    9.58683    8.40502   93.94962   90.00000   90.00000
LATT -1
SFAC Li O  S  Fe 
Li     1 -0.2357310000000 -0.3414440000000  0.2167260000000 1.0  -0.04
Li     1  0.2642690000000  0.3414440000000 -0.2167260000000 1.0  -0.04
Li     1  0.2665440000000 -0.1735670000000 -0.1277440000000 1.0   0.02
Li     1 -0.2334560000000  0.1735670000000  0.1277440000000 1.0   0.02
O      2 -0.2399300000000 -0.3122800000000 -0.1883730000000 1.0   0.05
O      2  0.2600700000000  0.3122800000000  0.1883730000000 1.0   0.05
O      2  0.7617860000000 -0.5561050000000 -0.3286030000000 1.0   0.06
O      2  0.2617860000000  0.5561050000000  0.3286030000000 1.0   0.06
O      2 -0.2456050000000  0.1113590000000  0.4494810000000 1.0   0.11
O      2  0.2543950000000 -0.1113590000000 -0.4494810000000 1.0   0.11
S      3 -0.2483590000000  0.1138830000000 -0.1819260000000 1.0   0.04
S      3 -0.7483590000000 -0.1138830000000  0.1819260000000 1.0   0.04
Fe     4 -0.2399410000000  0.2975450000000 -0.4861050000000 1.0   2.26
Fe     4  0.2600590000000 -0.2975450000000  0.4861050000000 1.0   2.26
Fe     4  0.2595180000000 -0.4117530000000 -0.2921060000000 1.0   1.72
Fe     4 -0.2404820000000  0.4117530000000  0.2921060000000 1.0   1.72
Fe     4  0.2530290000000  0.1097140000000 -0.3867130000000 1.0   1.88
Fe     4 -0.2469710000000 -0.1097140000000  0.3867130000000 1.0   1.88
END
