TITL LFSO-Li2Fe4S2O3-200912-103904-fe3146 0.0676 307.799338 -1.15343797E+004 -13.8673 15.1343 22 (Imm2) n - 1
REM
REM Run started: Sat, 12 Sep 2020 19:36:28 +0100 in /lustre/scratch/uccabz1/launch_tmp/launcher_2020-09-12-09-39-02-029685
REM CASTEP 20.1 from code version af48c487+ pr-geom-scf-spinfix Tue Jun 2 15:39:59 2020 +0100
REM Functional Perdew Burke Ernzerhof Relativity Koelling-Harmon Dispersion off
REM Cut-off 340.0000 eV Grid scale 1.7500 Gmax 16.5316 1/A FBSC none
REM MP grid 4 2 2 Offset 0.000 0.000 0.000 No. kpts 6 Spacing 0.07
REM Total runtime: 32439.7 s
REM Overall efficiency: 94.1429 %
REM
REM
REM
REM compiler GCC version 4.9.2
REM options -cpp -iprefix /lustre/shared/ucl/apps/gcc/4.9.2/bin/../lib/gcc/x86_64-unknown-linux-gnu/4.9.2/ -mtune=corei7 -march=x86-64 -g -Og
REM COMMAND_LINE
REM seed -1169354301 -1868609165 -130631894 -316816286 -579608701 8788425 -167771602 -1617839585 -1632616049 1436416311 634390980 1799684761
REM
REM S 3|1.8|5|6|7|30:31:32(qc=5)
REM O 2|1.5|12|13|15|20:21(qc=5)
REM Li 1|1.3|8|9|10|10U:20(qc=5)
REM Fe 3|2.2|2.0|1.0|8|9|10|40:41:32(qc=5)
REM 
CELL 1.54180    5.19210    8.14222    8.14222   89.10697   71.40729   71.40729
LATT -1
SFAC Li O  S  Fe 
Li     1 -0.1262140000000 -0.0737880000000 -0.1903630000000 1.0   0.06
Li     1  0.1262140000000  0.1903630000000  0.0737880000000 1.0   0.06
Li     1  0.3903650000000 -0.0737880000000 -0.1903630000000 1.0   0.06
Li     1 -0.3903650000000  0.1903630000000  0.0737880000000 1.0   0.06
O      2  0.4725410000000  0.1019520000000 -0.3075550000000 1.0   0.02
O      2 -0.4725410000000  0.3075550000000 -0.1019520000000 1.0   0.02
O      2 -0.2669380000000  0.1019520000000 -0.3075550000000 1.0   0.02
O      2  0.2669380000000  0.3075550000000 -0.1019520000000 1.0   0.02
O      2 -0.3365640000000 -0.4555490000000  0.1286780000000 1.0  -0.07
O      2  0.3365640000000 -0.1286780000000  0.4555490000000 1.0  -0.07
S      3  0.4750400000000  0.2574510000000  0.3698050000000 1.0   0.04
S      3 -0.4750400000000 -0.3698050000000 -0.2574510000000 1.0   0.04
S      3 -0.1022970000000  0.2574510000000  0.3698050000000 1.0   0.04
S      3  0.1022970000000 -0.3698050000000 -0.2574510000000 1.0   0.04
Fe     4  0.3535710000000 -0.2873830000000  0.0555570000000 1.0  -2.70
Fe     4 -0.3535710000000 -0.0555570000000  0.2873830000000 1.0  -2.70
Fe     4 -0.1217450000000 -0.2873830000000  0.0555570000000 1.0  -2.70
Fe     4  0.1217450000000 -0.0555570000000  0.2873830000000 1.0  -2.70
Fe     4  0.3131140000000 -0.4821460000000  0.2834210000000 1.0  -0.85
Fe     4 -0.3131140000000 -0.2834210000000  0.4821460000000 1.0  -0.85
Fe     4 -0.1143880000000 -0.4821460000000  0.2834210000000 1.0  -0.85
Fe     4  0.1143880000000 -0.2834210000000  0.4821460000000 1.0  -0.85
END
