TITL LFSO-Li4Fe2S3O2-200911-034541-10e75c -0.1386 372.581120 -8.62777888E+003 -13.2079 13.5731 22 (Cc) n - 1
REM
REM Run started: Fri, 11 Sep 2020 23:58:05 +0100 in /lustre/scratch/uccabz1/launch_tmp/launcher_2020-09-11-13-17-39-816051
REM CASTEP 20.1 from code version af48c487+ pr-geom-scf-spinfix Tue Jun 2 15:39:59 2020 +0100
REM Functional Perdew Burke Ernzerhof Relativity Koelling-Harmon Dispersion off
REM Cut-off 340.0000 eV Grid scale 1.7500 Gmax 16.5316 1/A FBSC none
REM MP grid 4 2 2 Offset 0.000 0.000 0.000 No. kpts 8 Spacing 0.07
REM Total runtime: 78115.5 s
REM Overall efficiency: 92.6923 %
REM
REM
REM
REM compiler GCC version 4.9.2
REM options -cpp -iprefix /lustre/shared/ucl/apps/gcc/4.9.2/bin/../lib/gcc/x86_64-unknown-linux-gnu/4.9.2/ -mtune=corei7 -march=x86-64 -g -Og
REM COMMAND_LINE
REM seed 557255749 -1765491443 -2021517273 472148940 274062842 -1218343353 1324096521 1469945475 1467348351 -1430467714 545273417 -121837777
REM
REM S 3|1.8|5|6|7|30:31:32(qc=5)
REM O 2|1.5|12|13|15|20:21(qc=5)
REM Li 1|1.3|8|9|10|10U:20(qc=5)
REM Fe 3|2.2|2.0|1.0|8|9|10|40:41:32(qc=5)
REM 
CELL 1.54180    3.86026   12.60656   10.46001   52.94311  103.89425  113.48354
LATT -1
SFAC Li O  S  Fe 
Li     1  0.3835330000000 -0.2350780000000 -0.5169050000000 1.0  -0.03
Li     1 -0.1164670000000  0.2480160000000  0.5169070000000 1.0  -0.03
Li     1  0.3775710000000  0.0877110000000 -0.2718600000000 1.0  -0.03
Li     1 -0.1224290000000 -0.1841510000000  0.2718620000000 1.0  -0.03
Li     1 -0.3924750000000 -0.1383880000000 -0.3010100000000 1.0   0.02
Li     1  0.1075250000000 -0.4393990000000  0.3010120000000 1.0   0.02
Li     1  0.4038830000000  0.4604010000000 -0.1754540000000 1.0   0.06
Li     1 -0.0961170000000  0.2849450000000  0.1754560000000 1.0   0.06
O      2  0.3328240000000  0.2029550000000  0.2290310000000 1.0  -0.24
O      2  0.8328240000000  0.4319850000000 -0.2290290000000 1.0  -0.24
O      2 -0.3973490000000  0.0557040000000 -0.3838320000000 1.0  -0.26
O      2  0.1026510000000 -0.3281290000000  0.3838340000000 1.0  -0.26
S      3  0.0434610000000 -0.4576420000000  0.0626070000000 1.0   0.00
S      3  0.5434610000000 -0.3950360000000 -0.0626050000000 1.0   0.00
S      3  0.5034610000000  0.3862470000000  0.4389520000000 1.0  -0.21
S      3  0.0034610000000 -0.1748020000000 -0.4389500000000 1.0  -0.21
S      3  0.0507670000000  0.1801040000000 -0.1592580000000 1.0  -0.07
S      3 -0.4492330000000  0.0208450000000  0.1592600000000 1.0  -0.07
Fe     4  0.3185890000000  0.0556140000000  0.4469350000000 1.0  -3.56
Fe     4 -0.1814110000000 -0.4974520000000 -0.4469330000000 1.0  -3.56
Fe     4  0.1621670000000  0.1469370000000  0.0873970000000 1.0  -2.29
Fe     4 -0.3378330000000  0.2343330000000 -0.0873950000000 1.0  -2.29
END
