TITL LFSO-LiFe3S3O2-200909-133510-07976b -0.0499 341.087792 -9.15285023E+003 -15.7514 16.2305 18 (R3m) n - 1
REM
REM Run started: Thu, 10 Sep 2020 01:13:38 +0100 in /lustre/scratch/uccabz1/launch_tmp/launcher_2020-09-09-12-35-07-549847
REM CASTEP 20.1 from code version af48c487+ pr-geom-scf-spinfix Tue Jun 2 15:39:59 2020 +0100
REM Functional Perdew Burke Ernzerhof Relativity Koelling-Harmon Dispersion off
REM Cut-off 340.0000 eV Grid scale 1.7500 Gmax 16.5316 1/A FBSC none
REM MP grid 3 3 3 Offset 0.000 0.000 0.000 No. kpts 6 Spacing 0.07
REM Total runtime: 42085.9 s
REM Overall efficiency: 98.2222 %
REM
REM
REM
REM compiler GCC version 4.9.2
REM options -cpp -iprefix /lustre/shared/ucl/apps/gcc/4.9.2/bin/../lib/gcc/x86_64-unknown-linux-gnu/4.9.2/ -mtune=corei7 -march=x86-64 -g -Og
REM COMMAND_LINE
REM seed 1044696112 -71396128 1483464157 -1763722808 726751767 164194902 -637430108 -1311223083 1525219485 1160866292 -548527560 1757616708
REM
REM S 3|1.8|5|6|7|30:31:32(qc=5)
REM O 2|1.5|12|13|15|20:21(qc=5)
REM Li 1|1.3|8|9|10|10U:20(qc=5)
REM Fe 3|2.2|2.0|1.0|8|9|10|40:41:32(qc=5)
REM 
CELL 1.54180    7.22858    7.22858    7.22858   74.07593   74.07593   74.07593
LATT -1
SFAC Li O  S  Fe 
Li     1 -0.4061130000000 -0.4061130000000 -0.4061130000000 1.0  -0.00
Li     1 -0.2279070000000 -0.2279070000000 -0.2279070000000 1.0   0.10
O      2  0.4465890000000  0.4490520000000 -0.1632580000000 1.0  -0.57
O      2  0.4490520000000 -0.1632580000000  0.4465890000000 1.0  -0.57
O      2 -0.1632580000000  0.4465890000000  0.4490520000000 1.0  -0.57
O      2 -0.5416030000000 -0.5416030000000 -0.5416030000000 1.0   0.01
S      3  0.1031010000000 -0.3547020000000 -0.3563700000000 1.0  -0.04
S      3 -0.3547020000000 -0.3563700000000  0.1031010000000 1.0  -0.04
S      3 -0.3563700000000  0.1031010000000 -0.3547020000000 1.0  -0.04
S      3  0.1495560000000  0.1497240000000 -0.2440420000000 1.0  -0.06
S      3  0.1497240000000 -0.2440420000000  0.1495560000000 1.0  -0.06
S      3 -0.2440420000000  0.1495560000000  0.1497240000000 1.0  -0.06
Fe     4  0.3494030000000 -0.2878150000000  0.3483600000000 1.0  -1.67
Fe     4 -0.2878150000000  0.3483600000000  0.3494030000000 1.0  -1.67
Fe     4  0.3483600000000  0.3494030000000 -0.2878150000000 1.0  -1.67
Fe     4 -0.1627000000000 -0.1626320000000  0.1261170000000 1.0  -2.95
Fe     4 -0.1626320000000  0.1261170000000 -0.1627000000000 1.0  -2.95
Fe     4  0.1261170000000 -0.1627000000000 -0.1626320000000 1.0  -2.95
END
