TITL LFSO-Li2Fe2S3O-200913-021714-07117b -0.0076 144.473085 -3.47604800E+003 6.42333 6.59357 8 (C2/m) n - 1
REM
REM Run started: Sun, 13 Sep 2020 03:27:45 +0100 in /lustre/scratch/uccabz1/launch_tmp/launcher_2020-09-13-01-17-13-246038
REM CASTEP 20.1 from code version af48c487+ pr-geom-scf-spinfix Tue Jun 2 15:39:59 2020 +0100
REM Functional Perdew Burke Ernzerhof Relativity Koelling-Harmon Dispersion off
REM Cut-off 340.0000 eV Grid scale 1.7500 Gmax 16.5316 1/A FBSC none
REM MP grid 6 6 2 Offset 0.000 0.000 0.000 No. kpts 21 Spacing 0.07
REM Total runtime: 6214.94 s
REM Overall efficiency: 95.5714 %
REM
REM
REM
REM compiler GCC version 4.9.2
REM options -cpp -iprefix /lustre/shared/ucl/apps/gcc/4.9.2/bin/../lib/gcc/x86_64-unknown-linux-gnu/4.9.2/ -mtune=corei7 -march=x86-64 -g -Og
REM COMMAND_LINE
REM seed -908471623 1913499598 -1091602142 -514043250 -936733957 1293941550 1096802357 -1927331314 650020477 -866870336 1866829918 1635803101
REM
REM S 3|1.8|5|6|7|30:31:32(qc=5)
REM O 2|1.5|12|13|15|20:21(qc=5)
REM Li 1|1.3|8|9|10|10U:20(qc=5)
REM Fe 3|2.2|2.0|1.0|8|9|10|40:41:32(qc=5)
REM 
CELL 1.54180    5.13262    5.13262   10.04356   88.85287   88.85287   33.10367
LATT -1
SFAC Li O  S  Fe 
Li     1 -0.3968810000000 -0.3968810000000 -0.1566490000000 1.0   0.03
Li     1  0.3968810000000  0.3968810000000  0.1566490000000 1.0   0.03
O      2  0.0000000000000  0.0000000000000 -0.5000000000000 1.0   0.26
S      3  0.2427520000000  0.2427520000000 -0.3267250000000 1.0   0.10
S      3 -0.2427520000000 -0.2427520000000  0.3267250000000 1.0   0.10
S      3  0.0000000000000  0.0000000000000  0.0000000000000 1.0   0.36
Fe     4  0.3627330000000  0.3627330000000  0.4644580000000 1.0   2.77
Fe     4 -0.3627330000000 -0.3627330000000 -0.4644580000000 1.0   2.77
END
