TITL LFSO-LiFe3S2O3-200909-165852-3663eb 0.0210 123.041171 -4.71165280E+003 -8.05470 8.29002 9 (Pm) n - 1
REM
REM Run started: Wed, 09 Sep 2020 20:58:16 +0100 in /lustre/scratch/uccabz1/launch_tmp/launcher_2020-09-09-15-58-51-103604
REM CASTEP 20.1 from code version af48c487+ pr-geom-scf-spinfix Tue Jun 2 15:39:59 2020 +0100
REM Functional Perdew Burke Ernzerhof Relativity Koelling-Harmon Dispersion off
REM Cut-off 340.0000 eV Grid scale 1.7500 Gmax 16.5316 1/A FBSC none
REM MP grid 6 3 4 Offset 0.000 0.000 0.000 No. kpts 24 Spacing 0.07
REM Total runtime: 15401.8 s
REM Overall efficiency: 94.3636 %
REM
REM
REM
REM compiler GCC version 4.9.2
REM options -cpp -iprefix /lustre/shared/ucl/apps/gcc/4.9.2/bin/../lib/gcc/x86_64-unknown-linux-gnu/4.9.2/ -mtune=corei7 -march=x86-64 -g -Og
REM COMMAND_LINE
REM seed 2124086223 -648929724 -201347855 -129933502 1923955118 1799374520 306837704 -1896653040 -817319846 277714325 -557943308 -1572086599
REM
REM S 3|1.8|5|6|7|30:31:32(qc=5)
REM O 2|1.5|12|13|15|20:21(qc=5)
REM Li 1|1.3|8|9|10|10U:20(qc=5)
REM Fe 3|2.2|2.0|1.0|8|9|10|40:41:32(qc=5)
REM 
CELL 1.54180    3.64181    7.15453    6.02474   90.00000  128.38865   90.00000
LATT -1
SFAC Li O  S  Fe 
Li     1  0.1832230000000  0.0000000000000 -0.1227000000000 1.0  -0.02
O      2  0.4264130000000 -0.3063560000000  0.1407710000000 1.0  -0.20
O      2  0.4264130000000  0.3063560000000  0.1407710000000 1.0  -0.20
O      2 -0.1070440000000  0.0000000000000  0.0806450000000 1.0  -0.30
S      3 -0.6431980000000 -0.2743780000000 -0.3715980000000 1.0  -0.15
S      3 -0.6431980000000  0.2743780000000 -0.3715980000000 1.0  -0.15
Fe     4 -0.0808600000000 -0.2558200000000  0.1272900000000 1.0  -2.40
Fe     4 -0.0808600000000  0.2558200000000  0.1272900000000 1.0  -2.40
Fe     4 -0.1593210000000 -0.5000000000000  0.3913580000000 1.0  -2.21
END
