TITL LFSO-Li3FeSO2-200911-170139-06573d 0.0391 194.634640 -5.28674697E+003 -9.88198 9.91112 14 (P3) n - 1
REM
REM Run started: Fri, 11 Sep 2020 22:12:50 +0100 in /lustre/scratch/uccabz1/launch_tmp/launcher_2020-09-11-16-01-36-061730
REM CASTEP 20.1 from code version af48c487+ pr-geom-scf-spinfix Tue Jun 2 15:39:59 2020 +0100
REM Functional Perdew Burke Ernzerhof Relativity Koelling-Harmon Dispersion off
REM Cut-off 340.0000 eV Grid scale 1.7500 Gmax 16.5316 1/A FBSC none
REM MP grid 3 3 3 Offset 0.000 0.000 0.000 No. kpts 8 Spacing 0.07
REM Total runtime: 18738.6 s
REM Overall efficiency: 96.2 %
REM
REM
REM
REM compiler GCC version 4.9.2
REM options -cpp -iprefix /lustre/shared/ucl/apps/gcc/4.9.2/bin/../lib/gcc/x86_64-unknown-linux-gnu/4.9.2/ -mtune=corei7 -march=x86-64 -g -Og
REM COMMAND_LINE
REM seed -2109424519 645617689 1377977054 332680133 -465596914 -680249195 211047795 664335956 353273408 -1917463057 1752206633 -1140411087
REM
REM S 3|1.8|5|6|7|30:31:32(qc=5)
REM O 2|1.5|12|13|15|20:21(qc=5)
REM Li 1|1.3|8|9|10|10U:20(qc=5)
REM Fe 3|2.2|2.0|1.0|8|9|10|40:41:32(qc=5)
REM 
CELL 1.54180    6.34722    6.34722    5.57857   90.00000   90.00000  120.00000
LATT -1
SFAC Li O  S  Fe 
Li     1 -0.3890810000000 -0.3886870000000 -0.2159030000000 1.0   0.01
Li     1  0.0003930000000  0.3890810000000 -0.2159030000000 1.0   0.01
Li     1  0.3886870000000 -0.0003930000000 -0.2159030000000 1.0   0.01
Li     1 -0.2769110000000 -0.0521020000000  0.3860830000000 1.0   0.02
Li     1  0.2248090000000  0.2769110000000  0.3860830000000 1.0   0.02
Li     1  0.0521020000000 -0.2248090000000  0.3860830000000 1.0   0.02
O      2  0.3238320000000  0.1405120000000  0.0824060000000 1.0  -0.43
O      2 -0.1833200000000 -0.3238320000000  0.0824060000000 1.0  -0.43
O      2 -0.1405120000000  0.1833200000000  0.0824060000000 1.0  -0.43
O      2 -0.0000000000000  0.0000000000000 -0.3836290000000 1.0  -0.41
S      3  0.3333330000000 -0.3333330000000 -0.4360560000000 1.0  -0.04
S      3 -0.3333330000000  0.3333330000000 -0.4402250000000 1.0  -0.39
Fe     4 -0.3333330000000  0.3333330000000  0.1649160000000 1.0  -3.90
Fe     4 -0.0000000000000  0.0000000000000 -0.0513120000000 1.0  -3.93
END
