TITL LFSO-Li2Fe4S3O2-200912-030031-a0ff51 0.0607 146.089680 -5.63893386E+003 12.7267 13.0644 11 (Fmm2) n - 1
REM
REM Run started: Sat, 12 Sep 2020 05:04:16 +0100 in /lustre/scratch/uccabz1/launch_tmp/launcher_2020-09-12-02-00-29-990156
REM CASTEP 20.1 from code version af48c487+ pr-geom-scf-spinfix Tue Jun 2 15:39:59 2020 +0100
REM Functional Perdew Burke Ernzerhof Relativity Koelling-Harmon Dispersion off
REM Cut-off 340.0000 eV Grid scale 1.7500 Gmax 16.5316 1/A FBSC none
REM MP grid 4 4 4 Offset 0.000 0.000 0.000 No. kpts 15 Spacing 0.07
REM Total runtime: 9100.88 s
REM Overall efficiency: 97.1429 %
REM
REM
REM
REM compiler GCC version 4.9.2
REM options -cpp -iprefix /lustre/shared/ucl/apps/gcc/4.9.2/bin/../lib/gcc/x86_64-unknown-linux-gnu/4.9.2/ -mtune=corei7 -march=x86-64 -g -Og
REM COMMAND_LINE
REM seed 682028735 849070814 -2032522237 1446938820 1096417817 -226268504 733864589 -415641047 589226352 -577126619 1879880871 -814716949
REM
REM S 3|1.8|5|6|7|30:31:32(qc=5)
REM O 2|1.5|12|13|15|20:21(qc=5)
REM Li 1|1.3|8|9|10|10U:20(qc=5)
REM Fe 3|2.2|2.0|1.0|8|9|10|40:41:32(qc=5)
REM 
CELL 1.54180    6.19858    6.19858    5.41754  113.66941  113.66941  107.35266
LATT -1
SFAC Li O  S  Fe 
Li     1  0.1240700000000 -0.3571650000000 -0.2330950000000 1.0  -0.15
Li     1 -0.3571650000000  0.1240700000000 -0.2330950000000 1.0  -0.15
O      2  0.3301540000000 -0.0787870000000  0.2513670000000 1.0   0.29
O      2 -0.0787870000000  0.3301540000000  0.2513670000000 1.0   0.29
S      3 -0.4244050000000 -0.4244050000000 -0.1835730000000 1.0   0.08
S      3  0.2408320000000  0.2408320000000 -0.1835730000000 1.0   0.08
S      3 -0.2338510000000 -0.2338510000000 -0.4677020000000 1.0   0.03
Fe     4  0.0341860000000 -0.2146160000000  0.2969470000000 1.0   3.06
Fe     4  0.2627610000000 -0.4884370000000  0.2969470000000 1.0   3.06
Fe     4 -0.4884370000000  0.2627610000000  0.2969470000000 1.0   3.06
Fe     4 -0.2146160000000  0.0341860000000  0.2969470000000 1.0   3.06
END
