TITL LFSO-Li3Fe3SO5-200926-074655-df34fe -0.0038 159.878143 -5.68302267E+003 9.00719 9.24922 12 (R3) n - 1
REM
REM Run started: Sat, 26 Sep 2020 11:43:08 +0100 in /lustre/scratch/uccabz1/launch_tmp/launcher_2020-09-26-06-46-52-761981
REM CASTEP 20.1 from code version af48c487+ pr-geom-scf-spinfix Tue Jun 2 15:39:59 2020 +0100
REM Functional Perdew Burke Ernzerhof Relativity Koelling-Harmon Dispersion off
REM Cut-off 340.0000 eV Grid scale 1.7500 Gmax 16.5316 1/A FBSC none
REM MP grid 4 4 4 Offset 0.000 0.000 0.000 No. kpts 12 Spacing 0.07
REM Total runtime: 16014.4 s
REM Overall efficiency: 96.4167 %
REM
REM
REM
REM compiler GCC version 4.9.2
REM options -cpp -iprefix /lustre/shared/ucl/apps/gcc/4.9.2/bin/../lib/gcc/x86_64-unknown-linux-gnu/4.9.2/ -mtune=corei7 -march=x86-64 -g -Og
REM COMMAND_LINE
REM seed -1503306047 -505044962 -686868717 920498341 2013966707 -639334715 1972564546 1154112957 -212541274 11899915 -210563876 1107894832
REM
REM S 3|1.8|5|6|7|30:31:32(qc=5)
REM O 2|1.5|12|13|15|20:21(qc=5)
REM Li 1|1.3|8|9|10|10U:20(qc=5)
REM Fe 3|2.2|2.0|1.0|8|9|10|40:41:32(qc=5)
REM 
CELL 1.54180    6.94581    6.94581    6.94581   46.30302   46.30302   46.30302
LATT -1
SFAC Li O  S  Fe 
Li     1  0.1160620000000 -0.2617800000000  0.4823200000000 1.0  -0.01
Li     1 -0.2617800000000  0.4823200000000  0.1160620000000 1.0  -0.01
Li     1  0.4823200000000  0.1160620000000 -0.2617800000000 1.0  -0.01
O      2  0.3572160000000 -0.0567530000000 -0.2751930000000 1.0   0.17
O      2 -0.0567530000000 -0.2751930000000  0.3572160000000 1.0   0.17
O      2 -0.2751930000000  0.3572160000000 -0.0567530000000 1.0   0.17
O      2  0.4237450000000  0.4237450000000  0.4237450000000 1.0   0.25
O      2  0.2600370000000  0.2600370000000  0.2600370000000 1.0   0.09
S      3 -0.1220930000000 -0.1220930000000 -0.1220930000000 1.0   0.18
Fe     4 -0.3882140000000  0.0130920000000  0.3022840000000 1.0   2.66
Fe     4  0.0130920000000  0.3022840000000 -0.3882140000000 1.0   2.66
Fe     4  0.3022840000000 -0.3882140000000  0.0130920000000 1.0   2.66
END
