TITL LFSO-Li2Fe2S2O-200913-134852-cb8b1d 0.0460 428.235977 -9.51589985E+003 21.9250 22.3117 21 (C2) n - 1
REM
REM Run started: Tue, 15 Sep 2020 04:51:11 +0100 in /lustre/scratch/uccabz1/launch_tmp/launcher_2020-09-14-10-56-55-137407
REM CASTEP 20.1 from code version af48c487+ pr-geom-scf-spinfix Tue Jun 2 15:39:59 2020 +0100
REM Functional Perdew Burke Ernzerhof Relativity Koelling-Harmon Dispersion off
REM Cut-off 340.0000 eV Grid scale 1.7500 Gmax 16.5316 1/A FBSC none
REM MP grid 3 3 3 Offset 0.000 0.000 0.000 No. kpts 10 Spacing 0.07
REM Total runtime: 119472 s
REM Overall efficiency: 68.6667 %
REM
REM
REM
REM compiler GCC version 4.9.2
REM options -cpp -iprefix /lustre/shared/ucl/apps/gcc/4.9.2/bin/../lib/gcc/x86_64-unknown-linux-gnu/4.9.2/ -mtune=corei7 -march=x86-64 -g -Og
REM COMMAND_LINE
REM seed -186616240 349743564 5082969 687673223 200060723 1490613997 777289792 737690660 566937817 1882714833 -328822053 -1443085199
REM
REM S 3|1.8|5|6|7|30:31:32(qc=5)
REM O 2|1.5|12|13|15|20:21(qc=5)
REM Li 1|1.3|8|9|10|10U:20(qc=5)
REM Fe 3|2.2|2.0|1.0|8|9|10|40:41:32(qc=5)
REM 
CELL 1.54180    9.19019    9.85063    9.85063   72.48966  134.17008  134.17008
LATT -1
SFAC Li O  S  Fe 
Li     1  0.4553990000000 -0.2337170000000 -0.4507770000000 1.0   0.04
Li     1 -0.4553990000000  0.4507770000000  0.2337170000000 1.0   0.04
Li     1  0.2134660000000 -0.1202410000000  0.7271960000000 1.0  -0.02
Li     1 -0.2134660000000 -0.7271960000000  0.1202410000000 1.0  -0.02
Li     1  0.2528360000000  0.5762320000000 -0.2591130000000 1.0  -0.04
Li     1 -0.2528360000000  0.2591130000000 -0.5762320000000 1.0  -0.04
O      2  0.1590230000000 -0.0009960000000 -0.4734910000000 1.0   0.37
O      2 -0.1590230000000  0.4734910000000  0.0009960000000 1.0   0.37
O      2  0.5000000000000 -0.0344950000000  0.0344950000000 1.0   0.27
S      3 -0.1915300000000 -0.5390790000000 -0.4190800000000 1.0   0.14
S      3  0.1915300000000  0.4190800000000  0.5390790000000 1.0   0.14
S      3  0.3510530000000 -0.0676560000000  0.3352540000000 1.0   0.19
S      3 -0.3510530000000 -0.3352540000000  0.0676560000000 1.0   0.19
S      3  0.3695700000000  0.1941880000000  0.0235900000000 1.0   0.25
S      3 -0.3695700000000 -0.0235900000000 -0.1941880000000 1.0   0.25
Fe     4  0.6576940000000 -0.1014970000000  0.0550310000000 1.0   3.22
Fe     4 -0.6576940000000 -0.0550310000000  0.1014970000000 1.0   3.22
Fe     4  0.5314320000000  0.4306910000000 -0.1152190000000 1.0   3.51
Fe     4 -0.5314320000000  0.1152190000000 -0.4306910000000 1.0   3.51
Fe     4 -0.2394850000000 -0.5529330000000 -0.2219350000000 1.0   3.16
Fe     4  0.2394850000000  0.2219350000000  0.5529330000000 1.0   3.16
END
