TITL LFSO-Li2Fe2S2O-200913-122019-e1c224 0.0149 94.705323 -3.17141796E+003 0.143148E-02 0.350307E-02 7 (R3m) n - 1
REM
REM Run started: Sun, 13 Sep 2020 16:23:21 +0100 in /lustre/scratch/uccabz1/launch_tmp/launcher_2020-09-13-11-20-16-051588
REM CASTEP 20.1 from code version af48c487+ pr-geom-scf-spinfix Tue Jun 2 15:39:59 2020 +0100
REM Functional Perdew Burke Ernzerhof Relativity Koelling-Harmon Dispersion off
REM Cut-off 340.0000 eV Grid scale 1.7500 Gmax 16.5316 1/A FBSC none
REM MP grid 6 6 2 Offset 0.000 0.000 0.000 No. kpts 21 Spacing 0.07
REM Total runtime: 14654.9 s
REM Overall efficiency: 94.1818 %
REM
REM
REM
REM compiler GCC version 4.9.2
REM options -cpp -iprefix /lustre/shared/ucl/apps/gcc/4.9.2/bin/../lib/gcc/x86_64-unknown-linux-gnu/4.9.2/ -mtune=corei7 -march=x86-64 -g -Og
REM COMMAND_LINE
REM seed 1444185693 -757599926 -750603084 1840221484 1820205208 -672082859 646120209 -1510166117 1142502535 634794091 1012401676 -1982286052
REM
REM S 3|1.8|5|6|7|30:31:32(qc=5)
REM O 2|1.5|12|13|15|20:21(qc=5)
REM Li 1|1.3|8|9|10|10U:20(qc=5)
REM Fe 3|2.2|2.0|1.0|8|9|10|40:41:32(qc=5)
REM 
CELL 1.54180    3.13277    3.13277   11.28844   82.02393   82.02393   60.00000
LATT -1
SFAC Li O  S  Fe 
Li     1 -0.4584710000000 -0.4584710000000  1.3754140000000 1.0
Li     1  0.0461130000000  0.0461130000000 -0.1383390000000 1.0
O      2  0.4113770000000  0.4113770000000 -1.2341300000000 1.0
S      3 -0.3567460000000 -0.3567460000000  1.0702390000000 1.0
S      3 -0.1827550000000 -0.1827550000000  0.5482640000000 1.0
Fe     4  0.1146880000000  0.1146880000000 -0.3440650000000 1.0
Fe     4  0.2785080000000  0.2785080000000 -0.8355250000000 1.0
END
