TITL LFSO-Li4Fe3SO4-200927-160251-ff2faf -0.0297 168.186713 -5.44558685E+003 11.6000 11.9124 12 (P2) n - 1
REM
REM Run started: Sun, 27 Sep 2020 19:03:04 +0100 in /lustre/scratch/uccabz1/launch_tmp/launcher_2020-09-27-15-02-49-552589
REM CASTEP 20.1 from code version af48c487+ pr-geom-scf-spinfix Tue Jun 2 15:39:59 2020 +0100
REM Functional Perdew Burke Ernzerhof Relativity Koelling-Harmon Dispersion off
REM Cut-off 340.0000 eV Grid scale 1.7500 Gmax 16.5316 1/A FBSC none
REM MP grid 5 3 2 Offset 0.000 0.000 0.000 No. kpts 10 Spacing 0.07
REM Total runtime: 11400.2 s
REM Overall efficiency: 76.5556 %
REM
REM
REM
REM compiler GCC version 4.9.2
REM options -cpp -iprefix /lustre/shared/ucl/apps/gcc/4.9.2/bin/../lib/gcc/x86_64-unknown-linux-gnu/4.9.2/ -mtune=corei7 -march=x86-64 -g -Og
REM COMMAND_LINE
REM seed 131809299 133126607 319093376 -1301644345 1475641980 1096576114 785278121 -1954447016 988935775 -1278426612 -1393445282 706359951
REM
REM S 3|1.8|5|6|7|30:31:32(qc=5)
REM O 2|1.5|12|13|15|20:21(qc=5)
REM Li 1|1.3|8|9|10|10U:20(qc=5)
REM Fe 3|2.2|2.0|1.0|8|9|10|40:41:32(qc=5)
REM 
CELL 1.54180    3.04626    5.45515   10.26412   90.00000   99.58312   90.00000
LATT -1
SFAC Li O  S  Fe 
Li     1 -0.0925000000000 -0.4077710000000 -0.1573120000000 1.0  -0.09
Li     1  0.0925000000000 -0.4077710000000  0.1573120000000 1.0  -0.09
Li     1  0.3420280000000  0.5185060000000 -0.3610380000000 1.0  -0.01
Li     1 -0.3420280000000  0.5185060000000  0.3610380000000 1.0  -0.01
O      2  0.1215000000000 -0.6240600000000  0.2918780000000 1.0   0.32
O      2 -0.1215000000000 -0.6240600000000 -0.2918780000000 1.0   0.32
O      2 -0.3891110000000 -0.1461820000000  0.1817950000000 1.0   0.23
O      2  0.3891110000000 -0.1461820000000 -0.1817950000000 1.0   0.23
S      3 -0.5000000000000 -0.1140060000000  0.5000000000000 1.0   0.22
Fe     4 -0.1543670000000  0.0455080000000 -0.2928710000000 1.0   3.70
Fe     4  0.1543670000000  0.0455080000000  0.2928710000000 1.0   3.70
Fe     4  0.5000000000000 -0.1145920000000  0.0000000000000 1.0   3.05
END
