TITL LFSO-Li2Fe4S2O3-200912-080240-81b6bc -0.0230 138.561255 -5.77435548E+003 10.9250 11.5912 11 (F222) n - 1
REM
REM Run started: Sat, 12 Sep 2020 08:30:44 +0100 in /lustre/scratch/uccabz1/launch_tmp/launcher_2020-09-12-07-02-38-440788
REM CASTEP 20.1 from code version af48c487+ pr-geom-scf-spinfix Tue Jun 2 15:39:59 2020 +0100
REM Functional Perdew Burke Ernzerhof Relativity Koelling-Harmon Dispersion off
REM Cut-off 340.0000 eV Grid scale 1.7500 Gmax 16.5316 1/A FBSC none
REM MP grid 4 4 4 Offset 0.000 0.000 0.000 No. kpts 15 Spacing 0.07
REM Total runtime: 3175.09 s
REM Overall efficiency: 95.4 %
REM
REM
REM
REM compiler GCC version 4.9.2
REM options -cpp -iprefix /lustre/shared/ucl/apps/gcc/4.9.2/bin/../lib/gcc/x86_64-unknown-linux-gnu/4.9.2/ -mtune=corei7 -march=x86-64 -g -Og
REM COMMAND_LINE
REM seed 303408723 -990164737 427386657 -937573238 -1689663225 -1992720586 1333640119 -711150761 -1679410658 431147298 2062255568 -672353184
REM
REM S 3|1.8|5|6|7|30:31:32(qc=5)
REM O 2|1.5|12|13|15|20:21(qc=5)
REM Li 1|1.3|8|9|10|10U:20(qc=5)
REM Fe 3|2.2|2.0|1.0|8|9|10|40:41:32(qc=5)
REM 
CELL 1.54180    6.09395    6.09395    5.96199  125.91678  125.91678   81.49977
LATT -1
SFAC Li O  S  Fe 
Li     1  0.3840350000000  0.3840350000000  0.0000000000000 1.0  -0.03
Li     1 -0.3840350000000 -0.3840350000000  0.0000000000000 1.0  -0.03
O      2 -0.2874330000000  0.2874330000000 -0.0000000000000 1.0   0.20
O      2  0.2874330000000 -0.2874330000000  0.0000000000000 1.0   0.20
O      2 -0.2500000000000 -0.7500000000000 -0.5000000000000 1.0  -0.08
S      3  0.0737900000000  0.9262100000000  0.5000000000000 1.0  -0.00
S      3  0.4262100000000  0.5737900000000  0.5000000000000 1.0  -0.00
Fe     4 -0.1186010000000  0.1020830000000 -0.2192870000000 1.0   2.67
Fe     4 -0.1020830000000  0.1186010000000  0.2192870000000 1.0   2.67
Fe     4  0.3213690000000  0.1006860000000  0.2192870000000 1.0   2.67
Fe     4 -0.1006860000000 -0.3213690000000 -0.2192870000000 1.0   2.67
END
