TITL LFSO-Li4Fe3S4O-200926-044415-efa99e 0.0311 173.051427 -5.04124624E+003 0.173939E-01 0.579464E-01 12 (Cm) n - 1
REM
REM Run started: Sat, 26 Sep 2020 13:58:33 +0100 in /lustre/scratch/uccabz1/launch_tmp/launcher_2020-09-26-06-52-36-051715
REM CASTEP 20.1 from code version af48c487+ pr-geom-scf-spinfix Tue Jun 2 15:39:59 2020 +0100
REM Functional Perdew Burke Ernzerhof Relativity Koelling-Harmon Dispersion off
REM Cut-off 340.0000 eV Grid scale 1.7500 Gmax 16.5316 1/A FBSC none
REM MP grid 5 3 3 Offset 0.000 0.000 0.000 No. kpts 16 Spacing 0.07
REM Total runtime: 28426.2 s
REM Overall efficiency: 96.7692 %
REM
REM
REM
REM compiler GCC version 4.9.2
REM options -cpp -iprefix /lustre/shared/ucl/apps/gcc/4.9.2/bin/../lib/gcc/x86_64-unknown-linux-gnu/4.9.2/ -mtune=corei7 -march=x86-64 -g -Og
REM COMMAND_LINE
REM seed -509620581 1443191851 794551286 1054603461 -1501548055 313276861 -1159508849 1181333497 647492639 508869535 1390744834 -80473433
REM
REM S 3|1.8|5|6|7|30:31:32(qc=5)
REM O 2|1.5|12|13|15|20:21(qc=5)
REM Li 1|1.3|8|9|10|10U:20(qc=5)
REM Fe 3|2.2|2.0|1.0|8|9|10|40:41:32(qc=5)
REM 
CELL 1.54180    3.25647    8.14366    8.14366   55.59422   77.83062   77.83062
LATT -1
SFAC Li O  S  Fe 
Li     1 -0.2520520000000 -0.3595950000000  0.3500570000000 1.0  -0.00
Li     1 -0.2520520000000  0.3500570000000 -0.3595950000000 1.0  -0.00
Li     1 -0.0828960000000  0.0174120000000 -0.4017550000000 1.0   0.00
Li     1 -0.0828960000000 -0.4017550000000  0.0174120000000 1.0   0.00
O      2  0.2528950000000  0.4896140000000  0.4896140000000 1.0   0.00
S      3  0.2944330000000  0.0823580000000 -0.1999020000000 1.0  -0.00
S      3  0.2944330000000 -0.1999020000000  0.0823580000000 1.0  -0.00
S      3 -0.4408340000000  0.4590250000000 -0.1182640000000 1.0  -0.00
S      3 -0.4408340000000 -0.1182640000000  0.4590250000000 1.0  -0.00
Fe     4  0.1319690000000 -0.0417850000000  0.2424440000000 1.0   0.00
Fe     4  0.1319690000000  0.2424440000000 -0.0417850000000 1.0   0.00
Fe     4  0.1062180000000 -0.3715920000000 -0.3715920000000 1.0   0.02
END
