TITL LFSO-Li4Fe2SO3-200910-235259-e5c8f0 -0.0220 139.813945 -4.14209760E+003 8.08011 8.20876 10 (C222) n - 1
REM
REM Run started: Fri, 11 Sep 2020 00:21:22 +0100 in /lustre/scratch/uccabz1/launch_tmp/launcher_2020-09-10-22-52-56-784348
REM CASTEP 20.1 from code version af48c487+ pr-geom-scf-spinfix Tue Jun 2 15:39:59 2020 +0100
REM Functional Perdew Burke Ernzerhof Relativity Koelling-Harmon Dispersion off
REM Cut-off 340.0000 eV Grid scale 1.7500 Gmax 16.5316 1/A FBSC none
REM MP grid 4 3 4 Offset 0.000 0.000 0.000 No. kpts 16 Spacing 0.07
REM Total runtime: 2936.02 s
REM Overall efficiency: 95.4 %
REM
REM
REM
REM compiler GCC version 4.9.2
REM options -cpp -iprefix /lustre/shared/ucl/apps/gcc/4.9.2/bin/../lib/gcc/x86_64-unknown-linux-gnu/4.9.2/ -mtune=corei7 -march=x86-64 -g -Og
REM COMMAND_LINE
REM seed -1531665521 1522771901 -1620479012 -264911695 -164689685 421512678 -1798771139 -1734162673 -747480598 414471267 -463887163 -237675676
REM
REM S 3|1.8|5|6|7|30:31:32(qc=5)
REM O 2|1.5|12|13|15|20:21(qc=5)
REM Li 1|1.3|8|9|10|10U:20(qc=5)
REM Fe 3|2.2|2.0|1.0|8|9|10|40:41:32(qc=5)
REM 
CELL 1.54180    5.28072    5.89859    5.20758   90.00000  120.46567   90.00000
LATT -1
SFAC Li O  S  Fe 
Li     1  0.3288380000000 -0.1815360000000  0.1583700000000 1.0  -0.07
Li     1 -0.3288380000000 -0.1815360000000 -0.1583700000000 1.0  -0.07
Li     1  0.1704680000000  0.1815360000000 -0.1583700000000 1.0  -0.07
Li     1 -0.1704680000000  0.1815360000000  0.1583700000000 1.0  -0.07
O      2  0.1752800000000  0.0000000000000  0.3505600000000 1.0   0.32
O      2 -0.1752800000000  0.0000000000000 -0.3505600000000 1.0   0.32
O      2  0.5000000000000  0.0000000000000  0.0000000000000 1.0   0.22
S      3  0.0000000000000  0.5000000000000  0.0000000000000 1.0   0.06
Fe     4 -0.5000000000000  0.2030290000000  0.5000000000000 1.0   3.72
Fe     4  0.0000000000000 -0.2030290000000  0.5000000000000 1.0   3.72
END
