TITL LFSO-Li4Fe3SO4-200927-173947-1b6f92 0.0317 141.185620 -5.44540146E+003 11.9990 12.0857 12 (R3) n - 1
REM
REM Run started: Sun, 27 Sep 2020 18:36:31 +0100 in /lustre/scratch/uccabz1/launch_tmp/launcher_2020-09-27-16-39-45-247567
REM CASTEP 20.1 from code version af48c487+ pr-geom-scf-spinfix Tue Jun 2 15:39:59 2020 +0100
REM Functional Perdew Burke Ernzerhof Relativity Koelling-Harmon Dispersion off
REM Cut-off 340.0000 eV Grid scale 1.7500 Gmax 16.5316 1/A FBSC none
REM MP grid 4 4 4 Offset 0.000 0.000 0.000 No. kpts 12 Spacing 0.07
REM Total runtime: 3802.61 s
REM Overall efficiency: 95.6667 %
REM
REM
REM
REM compiler GCC version 4.9.2
REM options -cpp -iprefix /lustre/shared/ucl/apps/gcc/4.9.2/bin/../lib/gcc/x86_64-unknown-linux-gnu/4.9.2/ -mtune=corei7 -march=x86-64 -g -Og
REM COMMAND_LINE
REM seed -894152979 -716047559 497642309 320080494 828546754 -61618492 1154408032 1565719248 1374631276 -450428172 -1843927522 -1901560960
REM
REM S 3|1.8|5|6|7|30:31:32(qc=5)
REM O 2|1.5|12|13|15|20:21(qc=5)
REM Li 1|1.3|8|9|10|10U:20(qc=5)
REM Fe 3|2.2|2.0|1.0|8|9|10|40:41:32(qc=5)
REM 
CELL 1.54180    6.32675    6.32675    6.32675   51.02451   51.02451   51.02451
LATT -1
SFAC Li O  S  Fe 
Li     1  0.0432720000000  0.4189870000000 -0.4289010000000 1.0   0.03
Li     1 -0.4289010000000  0.0432720000000  0.4189870000000 1.0   0.03
Li     1  0.4189870000000 -0.4289010000000  0.0432720000000 1.0   0.03
Li     1 -0.0448050000000 -0.0448050000000 -0.0448050000000 1.0  -0.06
O      2 -0.3766560000000  0.2708970000000 -0.1070130000000 1.0   0.31
O      2 -0.1070130000000 -0.3766560000000  0.2708970000000 1.0   0.31
O      2  0.2708970000000 -0.1070130000000 -0.3766560000000 1.0   0.31
O      2  0.4221990000000  0.4221990000000  0.4221990000000 1.0   0.32
S      3  0.1009000000000  0.1009000000000  0.1009000000000 1.0   0.15
Fe     4 -0.5139260000000 -0.2047700000000  0.2781230000000 1.0   3.53
Fe     4  0.2781230000000 -0.5139260000000 -0.2047700000000 1.0   3.53
Fe     4 -0.2047700000000  0.2781230000000 -0.5139260000000 1.0   3.53
END
