TITL LFSO-Li4Fe3SO4-200930-094939-d754ba 0.0358 140.973597 -5.44495492E+003 -4.82454 9.74349 12 (Cmm2) n - 1
REM
REM Run started: Wed, 30 Sep 2020 10:44:30 +0100 in /lustre/scratch/uccabz1/launch_tmp/launcher_2020-09-30-08-49-37-088116
REM CASTEP 20.1 from code version af48c487+ pr-geom-scf-spinfix Tue Jun 2 15:39:59 2020 +0100
REM Functional Perdew Burke Ernzerhof Relativity Koelling-Harmon Dispersion off
REM Cut-off 340.0000 eV Grid scale 1.7500 Gmax 16.5316 1/A FBSC none
REM MP grid 5 3 3 Offset 0.000 0.000 0.000 No. kpts 12 Spacing 0.07
REM Total runtime: 3997.92 s
REM Overall efficiency: 95 %
REM
REM
REM
REM compiler GCC version 4.9.2
REM options -cpp -iprefix /lustre/shared/ucl/apps/gcc/4.9.2/bin/../lib/gcc/x86_64-unknown-linux-gnu/4.9.2/ -mtune=corei7 -march=x86-64 -g -Og
REM COMMAND_LINE
REM seed 1584316158 54963635 748644124 238643870 -1953345929 -2019229540 -1899750138 1060903141 1355693232 64270557 1018302873 -115030401
REM
REM S 3|1.8|5|6|7|30:31:32(qc=5)
REM O 2|1.5|12|13|15|20:21(qc=5)
REM Li 1|1.3|8|9|10|10U:20(qc=5)
REM Fe 3|2.2|2.0|1.0|8|9|10|40:41:32(qc=5)
REM 
CELL 1.54180    3.10781    6.73598    6.73598   91.33695   90.00000   90.00000
LATT -1
SFAC Li O  S  Fe 
Li     1 -0.3855780000000  0.1223220000000  0.3744550000000 1.0   0.03
Li     1 -0.3855780000000 -0.1223220000000 -0.3744550000000 1.0   0.03
Li     1 -0.3855780000000  0.3744550000000  0.1223220000000 1.0   0.03
Li     1 -0.3855780000000 -0.3744550000000 -0.1223220000000 1.0   0.03
O      2  0.1116380000000  0.2826850000000 -0.0032650000000 1.0  -0.10
O      2  0.1116380000000 -0.2826850000000  0.0032650000000 1.0  -0.10
O      2  0.1116380000000 -0.0032650000000  0.2826850000000 1.0  -0.10
O      2  0.1116380000000  0.0032650000000 -0.2826850000000 1.0  -0.10
S      3 -0.4055590000000 -0.5000000000000 -0.5000000000000 1.0  -0.11
Fe     4  0.1307860000000  0.2936670000000 -0.2936670000000 1.0  -3.41
Fe     4  0.1307860000000 -0.2936670000000  0.2936670000000 1.0  -3.41
Fe     4  0.0877640000000  0.0000000000000 -0.0000000000000 1.0   2.37
END
