TITL LFSO-Li2Fe2S2O-200913-132120-1079f8 0.0191 403.917888 -9.50529553E+003 16.8857 20.5064 21 (R3) n - 1
REM
REM Run started: Mon, 14 Sep 2020 00:32:41 +0100 in /lustre/scratch/uccabz1/launch_tmp/launcher_2020-09-13-13-43-49-227318
REM CASTEP 20.1 from code version af48c487+ pr-geom-scf-spinfix Tue Jun 2 15:39:59 2020 +0100
REM Functional Perdew Burke Ernzerhof Relativity Koelling-Harmon Dispersion off
REM Cut-off 340.0000 eV Grid scale 1.7500 Gmax 16.5316 1/A FBSC none
REM MP grid 3 3 3 Offset 0.000 0.000 0.000 No. kpts 6 Spacing 0.07
REM Total runtime: 41409 s
REM Overall efficiency: 98.6154 %
REM
REM
REM
REM compiler GCC version 4.9.2
REM options -cpp -iprefix /lustre/shared/ucl/apps/gcc/4.9.2/bin/../lib/gcc/x86_64-unknown-linux-gnu/4.9.2/ -mtune=corei7 -march=x86-64 -g -Og
REM COMMAND_LINE
REM seed -1831048067 -1312161838 1373119239 -810297158 1181046361 1403994540 -377514161 193861114 922868657 -1770158188 631317639 -1059541759
REM
REM S 3|1.8|5|6|7|30:31:32(qc=5)
REM O 2|1.5|12|13|15|20:21(qc=5)
REM Li 1|1.3|8|9|10|10U:20(qc=5)
REM Fe 3|2.2|2.0|1.0|8|9|10|40:41:32(qc=5)
REM 
CELL 1.54180    8.42625    8.42625    8.17423   58.97473   58.97473   60.00000
LATT -1
SFAC Li O  S  Fe 
Li     1 -0.1907800000000 -0.4772870000000  0.4459050000000 1.0  -0.09
Li     1  0.2221620000000 -0.1907800000000  0.4459050000000 1.0  -0.09
Li     1 -0.4772870000000  0.2221620000000  0.4459050000000 1.0  -0.09
Li     1 -0.2517050000000  0.4076830000000  0.0482190000000 1.0  -0.12
Li     1 -0.2041970000000 -0.2517050000000  0.0482190000000 1.0  -0.12
Li     1  0.4076830000000 -0.2041970000000  0.0482190000000 1.0  -0.12
O      2  0.1574390000000 -0.4040670000000  0.1012360000000 1.0   0.23
O      2  0.1453930000000  0.1574390000000  0.1012360000000 1.0   0.23
O      2 -0.4040670000000  0.1453930000000  0.1012360000000 1.0   0.23
S      3 -0.0523880000000 -0.1945020000000 -0.2778510000000 1.0  -0.40
S      3  0.5247410000000 -0.0523880000000 -0.2778510000000 1.0  -0.40
S      3 -0.1945020000000  0.5247410000000 -0.2778510000000 1.0  -0.40
S      3  0.4495940000000 -0.2766720000000 -0.3967150000000 1.0   0.01
S      3  0.2237930000000  0.4495940000000 -0.3967150000000 1.0   0.01
S      3 -0.2766720000000  0.2237930000000 -0.3967150000000 1.0   0.01
Fe     4  0.4273670000000  0.4053060000000  0.0476000000000 1.0   3.09
Fe     4  0.1197270000000  0.4273670000000  0.0476000000000 1.0   3.09
Fe     4  0.4053060000000  0.1197270000000  0.0476000000000 1.0   3.09
Fe     4  0.2093890000000 -0.4617090000000  0.3217820000000 1.0   2.90
Fe     4 -0.0694620000000  0.2093890000000  0.3217820000000 1.0   2.90
Fe     4 -0.4617090000000 -0.0694620000000  0.3217820000000 1.0   2.90
END
