TITL LFSO-Li3FeS2O-200911-185256-e70f14 -0.2704 423.080025 -7.52557242E+003 11.7478 11.9740 21 (Fmm2) n - 1
REM
REM Run started: Sat, 12 Sep 2020 12:08:52 +0100 in /lustre/scratch/uccabz1/launch_tmp/launcher_2020-09-12-10-20-45-902872
REM CASTEP 20.1 from code version af48c487+ pr-geom-scf-spinfix Tue Jun 2 15:39:59 2020 +0100
REM Functional Perdew Burke Ernzerhof Relativity Koelling-Harmon Dispersion off
REM Cut-off 340.0000 eV Grid scale 1.7500 Gmax 16.5316 1/A FBSC none
REM MP grid 3 3 2 Offset 0.000 0.000 0.000 No. kpts 6 Spacing 0.07
REM Total runtime: 55509 s
REM Overall efficiency: 98.6 %
REM
REM
REM
REM compiler GCC version 4.9.2
REM options -cpp -iprefix /lustre/shared/ucl/apps/gcc/4.9.2/bin/../lib/gcc/x86_64-unknown-linux-gnu/4.9.2/ -mtune=corei7 -march=x86-64 -g -Og
REM COMMAND_LINE
REM seed 184914647 -2047726100 1546527195 877909460 1996694995 985059198 251526586 370014265 218469727 -1117691407 -1134525123 1718560858
REM
REM S 3|1.8|5|6|7|30:31:32(qc=5)
REM O 2|1.5|12|13|15|20:21(qc=5)
REM Li 1|1.3|8|9|10|10U:20(qc=5)
REM Fe 3|2.2|2.0|1.0|8|9|10|40:41:32(qc=5)
REM 
CELL 1.54180    7.38380    7.38380   10.95342  120.16625  120.16625   60.60105
LATT -1
SFAC Li O  S  Fe 
Li     1 -0.0522430000000 -0.0703020000000 -0.3335580000000 1.0  -0.01
Li     1  0.0703020000000  0.0522430000000  0.3335580000000 1.0  -0.01
Li     1  0.2813150000000  0.2632560000000  0.3335580000000 1.0  -0.01
Li     1 -0.2632560000000 -0.2813150000000 -0.3335580000000 1.0  -0.01
Li     1  0.5319970000000  0.3058250000000  0.2116700000000 1.0   0.02
Li     1 -0.3058250000000 -0.5319970000000 -0.2116700000000 1.0   0.02
Li     1  0.3203280000000  0.0941550000000 -0.2116700000000 1.0   0.02
Li     1 -0.0941550000000 -0.3203280000000  0.2116700000000 1.0   0.02
Li     1  0.2775940000000 -0.2775940000000 -0.0000000000000 1.0  -0.03
O      2 -0.2486650000000 -0.2200470000000  0.5312880000000 1.0   0.43
O      2  0.2200470000000  0.2486650000000 -0.5312880000000 1.0   0.43
O      2  0.0329650000000 -0.0329650000000 -0.0000000000000 1.0   0.32
S      3  0.0183810000000  0.4185500000000 -0.2456130000000 1.0   0.20
S      3 -0.4185500000000 -0.0183810000000  0.2456130000000 1.0   0.20
S      3  0.2639940000000  0.6641630000000  0.2456130000000 1.0   0.20
S      3 -0.6641630000000 -0.2639940000000 -0.2456130000000 1.0   0.20
S      3 -0.1975720000000  0.4155050000000  0.2179320000000 1.0   0.09
S      3 -0.4155050000000  0.1975720000000 -0.2179320000000 1.0   0.09
Fe     4  0.2334750000000 -0.5770890000000 -0.3436130000000 1.0   3.60
Fe     4  0.5770890000000 -0.2334750000000  0.3436130000000 1.0   3.60
Fe     4 -0.1871320000000  0.1871320000000 -0.0000000000000 1.0   2.37
END
