TITL LFSO-Li2Fe3S2O2-200921-041553-8bfdfc -0.0160 256.708918 -8.94698881E+003 -16.5594 16.9282 18 (I212121) n - 1
REM
REM Run started: Mon, 21 Sep 2020 20:23:17 +0100 in /lustre/scratch/uccabz1/launch_tmp/launcher_2020-09-21-03-15-52-005418
REM CASTEP 20.1 from code version af48c487+ pr-geom-scf-spinfix Tue Jun 2 15:39:59 2020 +0100
REM Functional Perdew Burke Ernzerhof Relativity Koelling-Harmon Dispersion off
REM Cut-off 340.0000 eV Grid scale 1.7500 Gmax 16.5316 1/A FBSC none
REM MP grid 3 3 3 Offset 0.000 0.000 0.000 No. kpts 8 Spacing 0.07
REM Total runtime: 64325.7 s
REM Overall efficiency: 98.4167 %
REM
REM
REM
REM compiler GCC version 4.9.2
REM options -cpp -iprefix /lustre/shared/ucl/apps/gcc/4.9.2/bin/../lib/gcc/x86_64-unknown-linux-gnu/4.9.2/ -mtune=corei7 -march=x86-64 -g -Og
REM COMMAND_LINE
REM seed 342988928 -1002027582 -103994055 -1430174946 799288391 577825142 1681776860 -980745165 -1385842474 -1379444626 -85984789 459754372
REM
REM S 3|1.8|5|6|7|30:31:32(qc=5)
REM O 2|1.5|12|13|15|20:21(qc=5)
REM Li 1|1.3|8|9|10|10U:20(qc=5)
REM Fe 3|2.2|2.0|1.0|8|9|10|40:41:32(qc=5)
REM 
CELL 1.54180   10.15889    7.24151    7.24151   70.65566   45.45771   45.45771
LATT -1
SFAC Li O  S  Fe 
Li     1 -0.4544370000000 -0.0315070000000 -0.2890990000000 1.0   0.02
Li     1 -0.2249570000000  0.2109010000000  0.4684930000000 1.0   0.02
Li     1 -0.0455630000000  0.2890990000000  0.0315070000000 1.0   0.02
Li     1 -0.2750430000000 -0.4684930000000 -0.2109010000000 1.0   0.02
O      2 -0.0940240000000 -0.3874850000000 -0.5162280000000 1.0  -0.22
O      2 -0.0022630000000 -0.0162280000000  0.1125150000000 1.0  -0.22
O      2 -0.4059760000000  0.5162280000000  0.3874850000000 1.0  -0.22
O      2  0.5022630000000 -0.1125150000000  0.0162280000000 1.0  -0.22
S      3 -0.5330480000000  0.4108610000000  0.0472670000000 1.0  -0.11
S      3  0.0749200000000  0.5472670000000 -0.0891390000000 1.0  -0.11
S      3  0.0330480000000 -0.0472670000000 -0.4108610000000 1.0  -0.11
S      3  0.4250800000000  0.0891390000000 -0.5472670000000 1.0  -0.11
Fe     4 -0.1807950000000  0.0208600000000  0.0676360000000 1.0  -2.46
Fe     4  0.0922990000000 -0.4323640000000 -0.4791400000000 1.0  -2.46
Fe     4 -0.3192050000000 -0.0676360000000 -0.0208600000000 1.0  -2.46
Fe     4  0.4077010000000  0.4791400000000  0.4323640000000 1.0  -2.46
Fe     4  0.3931940000000 -0.1431940000000 -0.6431940000000 1.0  -2.74
Fe     4  0.1068060000000  0.6431940000000  0.1431940000000 1.0  -2.74
END
