TITL LFSO-Li2Fe2SO3-200913-110458-c593cf -0.0129 202.571459 -7.48536128E+003 14.2777 14.5746 16 (Aem2) n - 1
REM
REM Run started: Sun, 13 Sep 2020 16:16:10 +0100 in /lustre/scratch/uccabz1/launch_tmp/launcher_2020-09-13-10-04-56-430746
REM CASTEP 20.1 from code version af48c487+ pr-geom-scf-spinfix Tue Jun 2 15:39:59 2020 +0100
REM Functional Perdew Burke Ernzerhof Relativity Koelling-Harmon Dispersion off
REM Cut-off 340.0000 eV Grid scale 1.7500 Gmax 16.5316 1/A FBSC none
REM MP grid 5 3 2 Offset 0.000 0.000 0.000 No. kpts 9 Spacing 0.07
REM Total runtime: 19431.3 s
REM Overall efficiency: 97.2727 %
REM
REM
REM
REM compiler GCC version 4.9.2
REM options -cpp -iprefix /lustre/shared/ucl/apps/gcc/4.9.2/bin/../lib/gcc/x86_64-unknown-linux-gnu/4.9.2/ -mtune=corei7 -march=x86-64 -g -Og
REM COMMAND_LINE
REM seed -1839557957 861081116 1656447317 -1558740143 1810163499 275344850 2018180797 -970914321 438219402 -1412728968 926888818 1854716281
REM
REM S 3|1.8|5|6|7|30:31:32(qc=5)
REM O 2|1.5|12|13|15|20:21(qc=5)
REM Li 1|1.3|8|9|10|10U:20(qc=5)
REM Fe 3|2.2|2.0|1.0|8|9|10|40:41:32(qc=5)
REM 
CELL 1.54180    2.99748    7.31086    9.94039  111.57602   90.00000   90.00000
LATT -1
SFAC Li O  S  Fe 
Li     1 -0.4712590000000 -0.4503720000000 -0.3170060000000 1.0  -0.04
Li     1  0.4712590000000 -0.1333660000000  0.3170060000000 1.0  -0.04
Li     1 -0.4712590000000  0.3666340000000  0.3170060000000 1.0  -0.04
Li     1  0.4712590000000  0.0496280000000 -0.3170060000000 1.0  -0.04
O      2 -0.0181020000000 -0.1887900000000  0.1790470000000 1.0   0.26
O      2  0.0181020000000 -0.3678370000000 -0.1790470000000 1.0   0.26
O      2 -0.0181020000000  0.1321630000000 -0.1790470000000 1.0   0.26
O      2  0.0181020000000  0.3112100000000  0.1790470000000 1.0   0.26
O      2  0.2443910000000  0.5033920000000 -0.5000000000000 1.0   0.02
O      2 -0.2443910000000  0.0033920000000 -0.5000000000000 1.0   0.02
S      3  0.7808340000000  0.2223160000000 -0.5000000000000 1.0   0.09
S      3 -0.7808340000000 -0.2776840000000  0.5000000000000 1.0   0.09
Fe     4 -0.0255240000000 -0.4600930000000  0.1377620000000 1.0   3.29
Fe     4  0.0255240000000  0.4021440000000 -0.1377620000000 1.0   3.29
Fe     4 -0.0255240000000 -0.0978560000000 -0.1377620000000 1.0   3.29
Fe     4  0.0255240000000  0.0399070000000  0.1377620000000 1.0   3.29
END
