TITL LFSO-Li2FeSO-200912-041059-05efe4 -0.0299 374.938073 -8.01938790E+003 -15.9690 16.4008 20 (I4) n - 1
REM
REM Run started: Sat, 12 Sep 2020 13:21:30 +0100 in /lustre/scratch/uccabz1/launch_tmp/launcher_2020-09-12-03-10-57-553309
REM CASTEP 20.1 from code version af48c487+ pr-geom-scf-spinfix Tue Jun 2 15:39:59 2020 +0100
REM Functional Perdew Burke Ernzerhof Relativity Koelling-Harmon Dispersion off
REM Cut-off 340.0000 eV Grid scale 1.7500 Gmax 16.5316 1/A FBSC none
REM MP grid 3 3 3 Offset 0.000 0.000 0.000 No. kpts 6 Spacing 0.07
REM Total runtime: 33217.6 s
REM Overall efficiency: 97 %
REM
REM
REM
REM compiler GCC version 4.9.2
REM options -cpp -iprefix /lustre/shared/ucl/apps/gcc/4.9.2/bin/../lib/gcc/x86_64-unknown-linux-gnu/4.9.2/ -mtune=corei7 -march=x86-64 -g -Og
REM COMMAND_LINE
REM seed -847034307 -1575071401 1937568824 1383446173 1503424687 1198880853 1039425809 216082784 104649695 -689967463 -870089508 -1832112375
REM
REM S 3|1.8|5|6|7|30:31:32(qc=5)
REM O 2|1.5|12|13|15|20:21(qc=5)
REM Li 1|1.3|8|9|10|10U:20(qc=5)
REM Fe 3|2.2|2.0|1.0|8|9|10|40:41:32(qc=5)
REM 
CELL 1.54180    8.09418    7.91839    7.91839   74.85733   59.26285   59.26285
LATT -1
SFAC Li O  S  Fe 
Li     1  0.0167860000000  0.2789900000000  0.1349810000000 1.0   0.02
Li     1 -0.5692420000000 -0.2789900000000 -0.1349810000000 1.0   0.02
Li     1  0.1517670000000 -0.1349810000000  0.2789900000000 1.0   0.02
Li     1  0.2957760000000  0.1349810000000 -0.2789900000000 1.0   0.02
Li     1 -0.0588410000000  0.2900560000000 -0.2872050000000 1.0   0.07
Li     1 -0.0559900000000 -0.2900560000000  0.2872050000000 1.0   0.07
Li     1  0.6539540000000  0.2872050000000  0.2900560000000 1.0   0.07
Li     1  0.2312150000000 -0.2872050000000 -0.2900560000000 1.0   0.07
O      2  0.3416240000000 -0.1169030000000 -0.3183890000000 1.0  -0.32
O      2 -0.0936680000000  0.1169030000000  0.3183890000000 1.0  -0.32
O      2  0.0232350000000  0.3183890000000 -0.1169030000000 1.0  -0.32
O      2  0.2247210000000 -0.3183890000000  0.1169030000000 1.0  -0.32
S      3 -0.4271850000000  0.3711760000000 -0.2386490000000 1.0  -0.21
S      3 -0.2946590000000 -0.3711760000000  0.2386490000000 1.0  -0.21
S      3 -0.6658350000000  0.2386490000000  0.3711760000000 1.0  -0.21
S      3 -0.0560100000000 -0.2386490000000 -0.3711760000000 1.0  -0.21
Fe     4 -0.2112190000000  0.0935040000000 -0.4153150000000 1.0  -3.55
Fe     4  0.4669700000000 -0.0935040000000  0.4153150000000 1.0  -3.55
Fe     4  0.3734660000000  0.4153150000000  0.0935040000000 1.0  -3.55
Fe     4 -0.1177150000000 -0.4153150000000 -0.0935040000000 1.0  -3.55
END
