TITL LFSO-Li4Fe3S3O2-200926-141331-e17af4 0.0143 183.534059 -5.17873350E+003 10.7495 10.9153 12 (P-1) n - 1
REM
REM Run started: Sat, 26 Sep 2020 22:35:19 +0100 in /lustre/scratch/uccabz1/launch_tmp/launcher_2020-09-26-13-13-29-474286
REM CASTEP 20.1 from code version af48c487+ pr-geom-scf-spinfix Tue Jun 2 15:39:59 2020 +0100
REM Functional Perdew Burke Ernzerhof Relativity Koelling-Harmon Dispersion off
REM Cut-off 340.0000 eV Grid scale 1.7500 Gmax 16.5316 1/A FBSC none
REM MP grid 5 2 3 Offset 0.000 0.000 0.000 No. kpts 15 Spacing 0.07
REM Total runtime: 31532.3 s
REM Overall efficiency: 97.6364 %
REM
REM
REM
REM compiler GCC version 4.9.2
REM options -cpp -iprefix /lustre/shared/ucl/apps/gcc/4.9.2/bin/../lib/gcc/x86_64-unknown-linux-gnu/4.9.2/ -mtune=corei7 -march=x86-64 -g -Og
REM COMMAND_LINE
REM seed 1941181843 -772050837 -1359565507 -341666583 -128428935 1854443396 1555610122 892938867 1166604216 -1697742103 573429931 -1405046942
REM
REM S 3|1.8|5|6|7|30:31:32(qc=5)
REM O 2|1.5|12|13|15|20:21(qc=5)
REM Li 1|1.3|8|9|10|10U:20(qc=5)
REM Fe 3|2.2|2.0|1.0|8|9|10|40:41:32(qc=5)
REM 
CELL 1.54180    3.74806    9.74207    6.55361   90.59223  127.57167  101.15260
LATT -1
SFAC Li O  S  Fe 
Li     1 -0.1122630000000 -0.3407920000000 -0.2021680000000 1.0  -0.08
Li     1  0.1122630000000  0.3407920000000  0.2021680000000 1.0  -0.08
Li     1  0.5133330000000 -0.1190300000000 -0.1856920000000 1.0   0.02
Li     1 -0.5133330000000  0.1190300000000  0.1856920000000 1.0   0.02
O      2 -0.2216420000000  0.3041030000000  0.3916470000000 1.0   0.25
O      2  0.2216420000000 -0.3041030000000 -0.3916470000000 1.0   0.25
S      3 -0.3558340000000  0.1430110000000 -0.1563380000000 1.0   0.24
S      3  0.3558340000000 -0.1430110000000  0.1563380000000 1.0   0.24
S      3  0.5000000000000 -0.5000000000000  0.0000000000000 1.0   0.23
Fe     4 -0.8921730000000  0.2766000000000 -0.2524380000000 1.0   3.54
Fe     4  0.8921730000000 -0.2766000000000  0.2524380000000 1.0   3.54
Fe     4  0.0000000000000 -0.5000000000000 -0.5000000000000 1.0   2.59
END
