TITL LFSO-Li2Fe2SO2-200912-224954-00fda5 -0.0595 276.868890 -9.92147730E+003 23.6484 23.8165 21 (P31) n - 1
REM
REM Run started: Sun, 13 Sep 2020 03:07:44 +0100 in /lustre/scratch/uccabz1/launch_tmp/launcher_2020-09-12-21-49-52-741114
REM CASTEP 20.1 from code version af48c487+ pr-geom-scf-spinfix Tue Jun 2 15:39:59 2020 +0100
REM Functional Perdew Burke Ernzerhof Relativity Koelling-Harmon Dispersion off
REM Cut-off 340.0000 eV Grid scale 1.7500 Gmax 16.5316 1/A FBSC none
REM MP grid 3 3 2 Offset 0.000 0.000 0.000 No. kpts 5 Spacing 0.07
REM Total runtime: 16627.2 s
REM Overall efficiency: 78.375 %
REM
REM
REM
REM compiler GCC version 4.9.2
REM options -cpp -iprefix /lustre/shared/ucl/apps/gcc/4.9.2/bin/../lib/gcc/x86_64-unknown-linux-gnu/4.9.2/ -mtune=corei7 -march=x86-64 -g -Og
REM COMMAND_LINE
REM seed -634369902 662392508 -1878188514 1711843167 1077017561 -1313213497 1185251615 -1484545307 1820189525 1940299685 431251239 -1890365978
REM
REM S 3|1.8|5|6|7|30:31:32(qc=5)
REM O 2|1.5|12|13|15|20:21(qc=5)
REM Li 1|1.3|8|9|10|10U:20(qc=5)
REM Fe 3|2.2|2.0|1.0|8|9|10|40:41:32(qc=5)
REM 
CELL 1.54180    5.94186    5.94186    9.05522   90.00000   90.00000  120.00000
LATT -1
SFAC Li O  S  Fe 
Li     1 -0.3494980000000  0.2456330000000 -0.3432910000000 1.0  -0.01
Li     1 -0.2456330000000  0.4048690000000 -0.0099570000000 1.0  -0.01
Li     1 -0.4048690000000  0.3494980000000  0.3233760000000 1.0  -0.01
Li     1 -0.1297330000000 -0.0971780000000  0.2376720000000 1.0  -0.04
Li     1  0.0971780000000 -0.0325550000000  0.5710050000000 1.0  -0.04
Li     1  0.0325550000000  0.1297330000000 -0.0956620000000 1.0  -0.04
O      2  0.4744020000000  0.0300700000000 -0.5484740000000 1.0   0.38
O      2 -0.0300700000000  0.4443320000000 -0.2151400000000 1.0   0.38
O      2 -0.4443320000000 -0.4744020000000  0.1181930000000 1.0   0.38
O      2 -0.1512970000000 -0.2798120000000  0.4193640000000 1.0   0.29
O      2  0.2798120000000  0.1285150000000 -0.2473020000000 1.0   0.29
O      2 -0.1285150000000  0.1512970000000  0.0860310000000 1.0   0.29
S      3  0.1706460000000  0.3637700000000  0.4262880000000 1.0   0.34
S      3 -0.3637700000000 -0.1931240000000 -0.2403780000000 1.0   0.34
S      3  0.1931240000000 -0.1706460000000  0.0929550000000 1.0   0.34
Fe     4  0.2379720000000 -0.2008370000000 -0.1709420000000 1.0   3.49
Fe     4  0.2008370000000 -0.5611910000000  0.1623910000000 1.0   3.49
Fe     4  0.5611910000000 -0.2379720000000  0.4957240000000 1.0   3.49
Fe     4 -0.4306470000000 -0.1781730000000  0.0195620000000 1.0   3.45
Fe     4  0.1781730000000 -0.2524740000000  0.3528950000000 1.0   3.45
Fe     4  0.2524740000000  0.4306470000000 -0.3137720000000 1.0   3.45
END
