TITL LFSO-Li4Fe2S4O-200910-191145-b953cf -0.0532 464.270832 -8.36085037E+003 15.5911 15.9179 22 (P21) n - 1
REM
REM Run started: Fri, 11 Sep 2020 11:44:05 +0100 in /lustre/scratch/uccabz1/launch_tmp/launcher_2020-09-10-18-11-44-228448
REM CASTEP 20.1 from code version af48c487+ pr-geom-scf-spinfix Tue Jun 2 15:39:59 2020 +0100
REM Functional Perdew Burke Ernzerhof Relativity Koelling-Harmon Dispersion off
REM Cut-off 340.0000 eV Grid scale 1.7500 Gmax 16.5316 1/A FBSC none
REM MP grid 3 3 2 Offset 0.000 0.000 0.000 No. kpts 6 Spacing 0.07
REM Total runtime: 65329.9 s
REM Overall efficiency: 94.6667 %
REM
REM
REM
REM compiler GCC version 4.9.2
REM options -cpp -iprefix /lustre/shared/ucl/apps/gcc/4.9.2/bin/../lib/gcc/x86_64-unknown-linux-gnu/4.9.2/ -mtune=corei7 -march=x86-64 -g -Og
REM COMMAND_LINE
REM seed 1910151571 1557444019 479862337 1088782786 535232611 648930251 438398232 875186927 -2079948603 -563033995 2104360511 1699732637
REM
REM S 3|1.8|5|6|7|30:31:32(qc=5)
REM O 2|1.5|12|13|15|20:21(qc=5)
REM Li 1|1.3|8|9|10|10U:20(qc=5)
REM Fe 3|2.2|2.0|1.0|8|9|10|40:41:32(qc=5)
REM 
CELL 1.54180    6.69758    7.64827    9.33884  103.95077   90.00000   90.00000
LATT -1
SFAC Li O  S  Fe 
Li     1 -0.3153450000000 -0.1630410000000 -0.0720940000000 1.0   0.03
Li     1  0.1846550000000  0.1630410000000  0.0720940000000 1.0   0.03
Li     1 -0.2855550000000 -0.6119810000000 -0.1291450000000 1.0  -0.04
Li     1  0.2144450000000  0.6119810000000  0.1291450000000 1.0  -0.04
Li     1  0.2891660000000 -0.1612800000000 -0.4294360000000 1.0   0.03
Li     1 -0.2108340000000  0.1612800000000  0.4294360000000 1.0   0.03
Li     1 -0.0143670000000 -0.4372790000000  0.4696780000000 1.0   0.01
Li     1 -0.5143670000000  0.4372790000000 -0.4696780000000 1.0   0.01
O      2 -0.2753240000000 -0.6338650000000  0.3632930000000 1.0   0.44
O      2  0.2246760000000  0.6338650000000 -0.3632930000000 1.0   0.44
S      3  0.6034080000000 -0.3628230000000  0.1098970000000 1.0   0.23
S      3  0.1034080000000  0.3628230000000 -0.1098970000000 1.0   0.23
S      3  0.2556980000000  0.4026440000000  0.2904760000000 1.0   0.32
S      3 -0.2443020000000 -0.4026440000000 -0.2904760000000 1.0   0.32
S      3 -0.4916480000000  0.1132010000000 -0.4000740000000 1.0   0.20
S      3  0.0083520000000 -0.1132010000000  0.4000740000000 1.0   0.20
S      3  0.0536220000000 -0.1518890000000  0.0109690000000 1.0   0.17
S      3  0.5536220000000  0.1518890000000 -0.0109690000000 1.0   0.17
Fe     4  0.3747570000000  0.2094940000000 -0.1919370000000 1.0   2.87
Fe     4 -0.1252430000000 -0.2094940000000  0.1919370000000 1.0   2.87
Fe     4 -0.4307120000000  0.3879110000000  0.2147100000000 1.0   3.53
Fe     4  0.0692880000000 -0.3879110000000 -0.2147100000000 1.0   3.53
END
