TITL LFSO-Li2Fe4S4O-200911-215117-24bf79 0.0561 237.101486 -5.50629278E+003 -14.2985 14.5333 11 (Fmm2) n - 1
REM
REM Run started: Sat, 12 Sep 2020 02:54:26 +0100 in /lustre/scratch/uccabz1/launch_tmp/launcher_2020-09-11-20-51-16-289130
REM CASTEP 20.1 from code version af48c487+ pr-geom-scf-spinfix Tue Jun 2 15:39:59 2020 +0100
REM Functional Perdew Burke Ernzerhof Relativity Koelling-Harmon Dispersion off
REM Cut-off 340.0000 eV Grid scale 1.7500 Gmax 16.5316 1/A FBSC none
REM MP grid 3 3 2 Offset 0.000 0.000 0.000 No. kpts 6 Spacing 0.07
REM Total runtime: 18255.5 s
REM Overall efficiency: 94.0833 %
REM
REM
REM
REM compiler GCC version 4.9.2
REM options -cpp -iprefix /lustre/shared/ucl/apps/gcc/4.9.2/bin/../lib/gcc/x86_64-unknown-linux-gnu/4.9.2/ -mtune=corei7 -march=x86-64 -g -Og
REM COMMAND_LINE
REM seed 1704881422 1579643304 1764490088 1338294648 1373840243 -1235978268 158523304 -935935408 -737881490 400880186 214884546 -71991600
REM
REM S 3|1.8|5|6|7|30:31:32(qc=5)
REM O 2|1.5|12|13|15|20:21(qc=5)
REM Li 1|1.3|8|9|10|10U:20(qc=5)
REM Fe 3|2.2|2.0|1.0|8|9|10|40:41:32(qc=5)
REM 
CELL 1.54180    5.33742    5.33742    9.10494  105.96523  105.96523   93.53100
LATT -1
SFAC Li O  S  Fe 
Li     1  0.6253160000000  0.6253160000000  0.4919650000000 1.0  -0.05
Li     1  0.1333510000000  0.1333510000000 -0.4919650000000 1.0  -0.05
O      2  0.1386910000000  0.1386910000000  0.0000000000000 1.0  -0.34
S      3  0.2671680000000 -0.2272380000000  0.2953310000000 1.0  -0.21
S      3 -0.5225680000000 -0.0281620000000 -0.2953310000000 1.0  -0.21
S      3 -0.0281620000000 -0.5225680000000 -0.2953310000000 1.0  -0.21
S      3 -0.2272380000000  0.2671680000000  0.2953310000000 1.0  -0.21
Fe     4  0.2188890000000 -0.1347000000000 -0.1596050000000 1.0  -3.25
Fe     4  0.0249050000000  0.3784940000000  0.1596050000000 1.0  -3.25
Fe     4  0.3784940000000  0.0249050000000  0.1596050000000 1.0  -3.25
Fe     4 -0.1347000000000  0.2188890000000 -0.1596050000000 1.0  -3.25
END
