TITL LFSO-LiFe3SO4-200909-014322-b0f904 0.0107 284.092523 -9.68870850E+003 0.569179 0.650274 18 (Cm) n - 1
REM
REM Run started: Thu, 10 Sep 2020 08:28:53 +0100 in /lustre/scratch/uccabz1/launch_tmp/launcher_2020-09-09-15-28-38-389092
REM CASTEP 20.1 from code version af48c487+ pr-geom-scf-spinfix Tue Jun 2 15:39:59 2020 +0100
REM Functional Perdew Burke Ernzerhof Relativity Koelling-Harmon Dispersion off
REM Cut-off 340.0000 eV Grid scale 1.7500 Gmax 16.5316 1/A FBSC none
REM MP grid 3 3 2 Offset 0.000 0.000 0.000 No. kpts 9 Spacing 0.07
REM Total runtime: 84234 s
REM Overall efficiency: 98.3636 %
REM
REM
REM
REM compiler GCC version 4.9.2
REM options -cpp -iprefix /lustre/shared/ucl/apps/gcc/4.9.2/bin/../lib/gcc/x86_64-unknown-linux-gnu/4.9.2/ -mtune=corei7 -march=x86-64 -g -Og
REM COMMAND_LINE
REM seed 1981066954 -621706897 -1945411060 -1222746885 366968465 372045748 -1940790035 1935402136 -881952156 598820079 1880472225 553126064
REM
REM S 3|1.8|5|6|7|30:31:32(qc=5)
REM O 2|1.5|12|13|15|20:21(qc=5)
REM Li 1|1.3|8|9|10|10U:20(qc=5)
REM Fe 3|2.2|2.0|1.0|8|9|10|40:41:32(qc=5)
REM 
CELL 1.54180    6.06472    6.16744    8.90460  110.26158  112.98847   90.00000
LATT -1
SFAC Li O  S  Fe 
Li     1  0.3738460000000  0.0704410000000 -0.3970370000000 1.0   0.00
Li     1  0.3738460000000 -0.4674780000000 -0.3970370000000 1.0   0.00
O      2 -0.1124360000000  0.2359090000000  0.0005470000000 1.0  -0.00
O      2 -0.1124360000000 -0.2353620000000  0.0005470000000 1.0  -0.00
O      2  0.2693510000000  0.4237870000000  0.3558350000000 1.0   0.01
O      2  0.2693510000000 -0.0679520000000  0.3558350000000 1.0   0.01
O      2 -0.2446660000000 -0.1014490000000  0.2952260000000 1.0   0.00
O      2 -0.2446660000000  0.3966760000000  0.2952260000000 1.0   0.00
O      2 -0.3093480000000 -0.4191370000000 -0.3761230000000 1.0   0.00
O      2 -0.3093480000000  0.0430140000000 -0.3761230000000 1.0   0.00
S      3  0.2721550000000  0.2469030000000 -0.1530880000000 1.0  -0.00
S      3  0.2721550000000 -0.3999910000000 -0.1530880000000 1.0  -0.00
Fe     4 -0.0595170000000 -0.2743640000000 -0.1804670000000 1.0   0.18
Fe     4 -0.0595170000000  0.0938970000000 -0.1804670000000 1.0   0.18
Fe     4 -0.4306170000000 -0.4805420000000  0.3933740000000 1.0   0.06
Fe     4 -0.4306170000000 -0.1260830000000  0.3933740000000 1.0   0.06
Fe     4 -0.0312650000000 -0.0699040000000  0.2198310000000 1.0   0.05
Fe     4 -0.0312650000000  0.2897350000000  0.2198310000000 1.0   0.05
END
