TITL LFSO-Li4Fe2SO4-200910-162047-314e2e -0.0498 135.567952 -4.58372278E+003 6.00000 6.15459 11 (C2/m) n - 1
REM
REM Run started: Thu, 10 Sep 2020 17:33:06 +0100 in /lustre/scratch/uccabz1/launch_tmp/launcher_2020-09-10-15-20-45-768593
REM CASTEP 20.1 from code version af48c487+ pr-geom-scf-spinfix Tue Jun 2 15:39:59 2020 +0100
REM Functional Perdew Burke Ernzerhof Relativity Koelling-Harmon Dispersion off
REM Cut-off 340.0000 eV Grid scale 1.7500 Gmax 16.5316 1/A FBSC none
REM MP grid 4 4 2 Offset 0.000 0.000 0.000 No. kpts 10 Spacing 0.07
REM Total runtime: 4385.3 s
REM Overall efficiency: 78.75 %
REM
REM
REM
REM compiler GCC version 4.9.2
REM options -cpp -iprefix /lustre/shared/ucl/apps/gcc/4.9.2/bin/../lib/gcc/x86_64-unknown-linux-gnu/4.9.2/ -mtune=corei7 -march=x86-64 -g -Og
REM COMMAND_LINE
REM seed -1537785829 1728736626 -1060202230 -348205292 -1219235430 1081138397 1411557573 -2114276570 -1523252461 955855454 1281698139 -1125420107
REM
REM S 3|1.8|5|6|7|30:31:32(qc=5)
REM O 2|1.5|12|13|15|20:21(qc=5)
REM Li 1|1.3|8|9|10|10U:20(qc=5)
REM Fe 3|2.2|2.0|1.0|8|9|10|40:41:32(qc=5)
REM 
CELL 1.54180    4.06396    4.06396    8.92271   73.57253   73.57253   86.10727
LATT -1
SFAC Li O  S  Fe 
Li     1  0.5806210000000  0.0810190000000  0.3076010000000 1.0   0.00
Li     1 -0.0810190000000 -0.5806210000000 -0.3076010000000 1.0   0.00
Li     1 -0.5806210000000 -0.0810190000000 -0.3076010000000 1.0   0.00
Li     1  0.0810190000000  0.5806210000000  0.3076010000000 1.0   0.00
O      2 -0.4222550000000  0.0891760000000 -0.1502730000000 1.0   0.17
O      2 -0.0891760000000  0.4222550000000  0.1502730000000 1.0   0.17
O      2  0.4222550000000 -0.0891760000000  0.1502730000000 1.0   0.17
O      2  0.0891760000000 -0.4222550000000 -0.1502730000000 1.0   0.17
S      3  0.0000000000000  0.0000000000000  0.5000000000000 1.0  -0.00
Fe     4 -0.2495880000000 -0.2495880000000 -0.0032760000000 1.0   2.66
Fe     4  0.2495880000000  0.2495880000000  0.0032760000000 1.0   2.66
END
