TITL LFSO-Li2Fe4S3O2-200912-060812-c9eff2 0.0327 372.129826 -1.12833974E+004 18.6045 19.2941 22 (F222) n - 1
REM
REM Run started: Sat, 12 Sep 2020 18:28:37 +0100 in /lustre/scratch/uccabz1/launch_tmp/launcher_2020-09-12-05-08-10-881938
REM CASTEP 20.1 from code version af48c487+ pr-geom-scf-spinfix Tue Jun 2 15:39:59 2020 +0100
REM Functional Perdew Burke Ernzerhof Relativity Koelling-Harmon Dispersion off
REM Cut-off 340.0000 eV Grid scale 1.7500 Gmax 16.5316 1/A FBSC none
REM MP grid 3 3 3 Offset 0.000 0.000 0.000 No. kpts 8 Spacing 0.07
REM Total runtime: 44857.7 s
REM Overall efficiency: 98.3333 %
REM
REM
REM
REM compiler GCC version 4.9.2
REM options -cpp -iprefix /lustre/shared/ucl/apps/gcc/4.9.2/bin/../lib/gcc/x86_64-unknown-linux-gnu/4.9.2/ -mtune=corei7 -march=x86-64 -g -Og
REM COMMAND_LINE
REM seed -1477814380 -1486693294 -1528417298 98230166 -1482316639 -158464183 -1099488908 -1533606889 1804738417 -1355026582 -1259673827 -105366332
REM
REM S 3|1.8|5|6|7|30:31:32(qc=5)
REM O 2|1.5|12|13|15|20:21(qc=5)
REM Li 1|1.3|8|9|10|10U:20(qc=5)
REM Fe 3|2.2|2.0|1.0|8|9|10|40:41:32(qc=5)
REM 
CELL 1.54180    8.66130    8.66130    7.52887  118.79323  118.79323   99.36062
LATT -1
SFAC Li O  S  Fe 
Li     1 -0.3087220000000 -0.4719640000000 -0.4982230000000 1.0   0.01
Li     1 -0.1895010000000 -0.0262580000000 -0.4982230000000 1.0   0.01
Li     1  0.4719640000000  0.3087220000000  0.4982230000000 1.0   0.01
Li     1  0.0262590000000  0.1895010000000  0.4982230000000 1.0   0.01
O      2  0.0818770000000  0.2104590000000 -0.2083940000000 1.0   0.28
O      2 -0.2902710000000  0.5811470000000 -0.2083940000000 1.0   0.28
O      2 -0.2104590000000 -0.0818770000000  0.2083940000000 1.0   0.28
O      2 -0.5811470000000  0.2902710000000  0.2083940000000 1.0   0.28
S      3  0.2678580000000  0.0395390000000 -0.4940240000000 1.0   0.06
S      3  0.2381170000000 -0.5335630000000 -0.4940240000000 1.0   0.06
S      3 -0.0395390000000 -0.2678580000000  0.4940240000000 1.0   0.06
S      3  0.5335630000000 -0.2381170000000  0.4940240000000 1.0   0.06
S      3  0.2434850000000 -0.2434850000000  0.0000000000000 1.0   0.05
S      3 -0.2434850000000  0.2434850000000  0.0000000000000 1.0   0.05
Fe     4 -0.5144330000000 -0.0169850000000 -0.2528960000000 1.0   1.02
Fe     4  0.2615380000000 -0.2359110000000 -0.2528960000000 1.0   1.02
Fe     4  0.0169850000000  0.5144330000000  0.2528960000000 1.0   1.02
Fe     4  0.2359110000000 -0.2615380000000  0.2528960000000 1.0   1.02
Fe     4 -0.0849340000000 -0.2639120000000  0.1546640000000 1.0   3.26
Fe     4  0.2395980000000  0.4185760000000  0.1546640000000 1.0   3.26
Fe     4  0.2639120000000  0.0849340000000 -0.1546640000000 1.0   3.26
Fe     4 -0.4185760000000 -0.2395980000000 -0.1546640000000 1.0   3.26
END
