TITL LFSO-Li2Fe2S3O-200913-021949-00fb50 0.0350 162.782912 -3.47448312E+003 0.117572E-03 0.781162E-02 8 (P3) n - 1
REM
REM Run started: Sun, 13 Sep 2020 02:56:11 +0100 in /lustre/scratch/uccabz1/launch_tmp/launcher_2020-09-13-01-19-48-033264
REM CASTEP 20.1 from code version af48c487+ pr-geom-scf-spinfix Tue Jun 2 15:39:59 2020 +0100
REM Functional Perdew Burke Ernzerhof Relativity Koelling-Harmon Dispersion off
REM Cut-off 340.0000 eV Grid scale 1.7500 Gmax 16.5316 1/A FBSC none
REM MP grid 3 3 3 Offset 0.000 0.000 0.000 No. kpts 8 Spacing 0.07
REM Total runtime: 3121.4 s
REM Overall efficiency: 93.8333 %
REM
REM
REM
REM compiler GCC version 4.9.2
REM options -cpp -iprefix /lustre/shared/ucl/apps/gcc/4.9.2/bin/../lib/gcc/x86_64-unknown-linux-gnu/4.9.2/ -mtune=corei7 -march=x86-64 -g -Og
REM COMMAND_LINE
REM seed 1711491313 1342921971 -769556780 -572991195 1587900262 1678224583 2048654340 248975407 676229530 1063200085 1678025665 1959883748
REM
REM S 3|1.8|5|6|7|30:31:32(qc=5)
REM O 2|1.5|12|13|15|20:21(qc=5)
REM Li 1|1.3|8|9|10|10U:20(qc=5)
REM Fe 3|2.2|2.0|1.0|8|9|10|40:41:32(qc=5)
REM 
CELL 1.54180    4.98991    6.13752    6.13752  120.00000   90.00000   90.00000
LATT -1
SFAC Li O  S  Fe 
Li     1  0.3871990000000 -0.3333330000000  0.3333330000000 1.0  -0.00
Li     1  0.4815170000000 -0.0000000000000  0.0000000000000 1.0  -0.00
O      2  0.2346050000000  0.3333330000000 -0.3333330000000 1.0  -0.00
S      3 -0.2430720000000 -0.3445430000000  0.0017950000000 1.0  -0.00
S      3 -0.2430720000000  0.3463380000000  0.3445430000000 1.0  -0.00
S      3 -0.2430720000000 -0.0017950000000 -0.3463380000000 1.0  -0.00
Fe     4 -0.1310160000000 -0.3333330000000  0.3333330000000 1.0   0.01
Fe     4 -0.0876120000000  0.3333330000000 -0.3333330000000 1.0  -0.00
END
