TITL LFSO-Li4Fe3S2O3-200928-034736-141aba -0.0390 318.391141 -1.06233625E+004 17.9988 18.5341 24 (R3) n - 1
REM
REM Run started: Mon, 28 Sep 2020 13:55:13 +0100 in /scratch/scratch/uccabz1/launch_tmp/launcher_2020-09-28-02-47-33-364249
REM CASTEP 19.11| from code version Version unavailable
REM Functional Perdew Burke Ernzerhof Relativity Koelling-Harmon Dispersion off
REM Cut-off 340.0000 eV Grid scale 1.7500 Gmax 16.5316 1/A FBSC none
REM MP grid 3 3 3 Offset 0.000 0.000 0.000 No. kpts 6 Spacing 0.07
REM Total runtime: 36626.4 s
REM Overall efficiency: 96 %
REM
REM
REM
REM compiler GCC version 4.9.2
REM options -cpp -iprefix /scratch/UCL/applications/gcc/4.9.2/bin/../lib/gcc/x86_64-unknown-linux-gnu/4.9.2/ -mtune=corei7 -march=x86-64 -g -O2
REM COMMAND_LINE
REM seed -1832345396 -99409461 -1225513408 -118504168 -1902166454 640439430 -1629393164 1025133146 -856494059 -372072152 1161603813 2034318434
REM
REM S 3|1.8|5|6|7|30:31:32(qc=5)
REM O 2|1.5|12|13|15|20:21(qc=5)
REM Li 1|1.3|8|9|10|10U:20(qc=5)
REM Fe 3|2.2|2.0|1.0|8|9|10|40:41:32(qc=5)
REM 
CELL 1.54180    6.85634    6.85634    6.85634   95.00715   95.00715   95.00715
LATT -1
SFAC Li O  S  Fe 
Li     1  0.6206170000000 -0.0142930000000 -0.4598050000000 1.0   0.01
Li     1 -0.0142930000000 -0.4598050000000  0.6206170000000 1.0   0.01
Li     1 -0.4598050000000  0.6206170000000 -0.0142930000000 1.0   0.01
Li     1 -0.1866150000000 -0.1368030000000  0.1801590000000 1.0  -0.04
Li     1 -0.1368030000000  0.1801590000000 -0.1866150000000 1.0  -0.04
Li     1  0.1801590000000 -0.1866150000000 -0.1368030000000 1.0  -0.04
Li     1 -0.4063980000000 -0.4063980000000 -0.4063980000000 1.0   0.05
Li     1  0.3780450000000  0.3780450000000  0.3780450000000 1.0  -0.30
O      2  0.2628620000000  0.5713970000000 -0.0550930000000 1.0   0.21
O      2  0.5713970000000 -0.0550930000000  0.2628620000000 1.0   0.21
O      2 -0.0550930000000  0.2628620000000  0.5713970000000 1.0   0.21
O      2  0.0068540000000  0.3010830000000  0.0436730000000 1.0   0.17
O      2  0.3010830000000  0.0436730000000  0.0068540000000 1.0   0.17
O      2  0.0436730000000  0.0068540000000  0.3010830000000 1.0   0.17
S      3 -0.2852520000000  0.4795080000000  0.2748580000000 1.0   0.09
S      3  0.4795080000000  0.2748580000000 -0.2852520000000 1.0   0.09
S      3  0.2748580000000 -0.2852520000000  0.4795080000000 1.0   0.09
S      3 -0.1939980000000 -0.1939980000000 -0.1939980000000 1.0   0.05
Fe     4  0.2596190000000  0.2989260000000 -0.0485980000000 1.0   2.31
Fe     4  0.2989260000000 -0.0485980000000  0.2596190000000 1.0   2.31
Fe     4 -0.0485980000000  0.2596190000000  0.2989260000000 1.0   2.31
Fe     4  0.1814010000000  0.1210540000000 -0.4346470000000 1.0   3.33
Fe     4  0.1210540000000 -0.4346470000000  0.1814010000000 1.0   3.33
Fe     4 -0.4346470000000  0.1814010000000  0.1210540000000 1.0   3.33
END
