TITL LFSO-Li6FeSO3-200909-231746-fe4743 -0.0127 144.866939 -3.67351856E+003 -3.17864 3.64363 11 (P222) n - 1
REM
REM Run started: Thu, 10 Sep 2020 00:30:35 +0100 in /lustre/scratch/uccabz1/launch_tmp/launcher_2020-09-09-22-17-45-281144
REM CASTEP 20.1 from code version af48c487+ pr-geom-scf-spinfix Tue Jun 2 15:39:59 2020 +0100
REM Functional Perdew Burke Ernzerhof Relativity Koelling-Harmon Dispersion off
REM Cut-off 340.0000 eV Grid scale 1.7500 Gmax 16.5316 1/A FBSC none
REM MP grid 5 4 2 Offset 0.000 0.000 0.000 No. kpts 6 Spacing 0.07
REM Total runtime: 5004.18 s
REM Overall efficiency: 92.8333 %
REM
REM
REM
REM compiler GCC version 4.9.2
REM options -cpp -iprefix /lustre/shared/ucl/apps/gcc/4.9.2/bin/../lib/gcc/x86_64-unknown-linux-gnu/4.9.2/ -mtune=corei7 -march=x86-64 -g -Og
REM COMMAND_LINE
REM seed -1150124173 -765796142 -1194708641 382758146 -1337033949 -175520368 -566312280 1714895982 2061160957 -1259585574 1441070408 2145484807
REM
REM S 3|1.8|5|6|7|30:31:32(qc=5)
REM O 2|1.5|12|13|15|20:21(qc=5)
REM Li 1|1.3|8|9|10|10U:20(qc=5)
REM Fe 3|2.2|2.0|1.0|8|9|10|40:41:32(qc=5)
REM 
CELL 1.54180    2.87965    3.74290   13.44068   90.00000   90.00000   90.00000
LATT -1
SFAC Li O  S  Fe 
Li     1  0.3340020000000 -0.2712360000000  0.3366450000000 1.0   0.08
Li     1 -0.3340020000000 -0.2712360000000 -0.3366450000000 1.0   0.08
Li     1 -0.3340020000000  0.2712360000000  0.3366450000000 1.0   0.08
Li     1  0.3340020000000  0.2712360000000 -0.3366450000000 1.0   0.08
Li     1 -0.5000000000000  0.0000000000000 -0.1461070000000 1.0   0.01
Li     1 -0.5000000000000  0.0000000000000  0.1461070000000 1.0   0.01
O      2  0.0000000000000  0.5000000000000 -0.2556650000000 1.0  -0.12
O      2  0.0000000000000  0.5000000000000  0.2556650000000 1.0  -0.12
O      2  0.0000000000000  0.5000000000000  0.5000000000000 1.0  -0.24
S      3  0.0000000000000  0.0000000000000  0.0000000000000 1.0  -0.24
Fe     4  0.0000000000000  0.0000000000000  0.5000000000000 1.0  -2.80
END
