TITL LFSO-Li4Fe3S4O-200925-212131-2167ec 0.0354 258.076713 -5.04191073E+003 7.99921 8.39993 12 (P3) n - 1
REM
REM Run started: Sat, 26 Sep 2020 01:02:49 +0100 in /lustre/scratch/uccabz1/launch_tmp/launcher_2020-09-25-20-21-29-654090
REM CASTEP 20.1 from code version af48c487+ pr-geom-scf-spinfix Tue Jun 2 15:39:59 2020 +0100
REM Functional Perdew Burke Ernzerhof Relativity Koelling-Harmon Dispersion off
REM Cut-off 340.0000 eV Grid scale 1.7500 Gmax 16.5316 1/A FBSC none
REM MP grid 3 3 2 Offset 0.000 0.000 0.000 No. kpts 5 Spacing 0.07
REM Total runtime: 13354.2 s
REM Overall efficiency: 84.2 %
REM
REM
REM
REM compiler GCC version 4.9.2
REM options -cpp -iprefix /lustre/shared/ucl/apps/gcc/4.9.2/bin/../lib/gcc/x86_64-unknown-linux-gnu/4.9.2/ -mtune=corei7 -march=x86-64 -g -Og
REM COMMAND_LINE
REM seed 835554902 -464332277 1953114354 -1553497376 539513368 956964259 1491236520 -760066319 1902603763 1309502007 371451921 988870568
REM
REM S 3|1.8|5|6|7|30:31:32(qc=5)
REM O 2|1.5|12|13|15|20:21(qc=5)
REM Li 1|1.3|8|9|10|10U:20(qc=5)
REM Fe 3|2.2|2.0|1.0|8|9|10|40:41:32(qc=5)
REM 
CELL 1.54180    6.07193    6.07193    8.08286   90.00000   90.00000  120.00000
LATT -1
SFAC Li O  S  Fe 
Li     1 -0.0721510000000 -0.3756700000000  0.3151050000000 1.0  -0.06
Li     1  0.3756700000000  0.3035190000000  0.3151050000000 1.0  -0.06
Li     1 -0.3035190000000  0.0721510000000  0.3151050000000 1.0  -0.06
Li     1  0.0000000000000 -0.0000000000000 -0.0845070000000 1.0   0.01
O      2 -0.3333330000000  0.3333330000000  0.3904540000000 1.0   0.28
S      3 -0.0465950000000 -0.3245110000000 -0.3149650000000 1.0   0.08
S      3  0.3245110000000  0.2779160000000 -0.3149650000000 1.0   0.08
S      3 -0.2779160000000  0.0465950000000 -0.3149650000000 1.0   0.08
S      3  0.0000000000000 -0.0000000000000  0.1987280000000 1.0   0.10
Fe     4  0.3420470000000 -0.0653830000000 -0.3979310000000 1.0   2.51
Fe     4  0.0653830000000  0.4074300000000 -0.3979310000000 1.0   2.51
Fe     4 -0.4074300000000 -0.3420470000000 -0.3979310000000 1.0   2.51
END
