TITL LFSO-Li2Fe3SO3-200912-175803-45a3c8 0.0446 123.358161 -4.60570511E+003 9.86563 10.1543 9 (P2) n - 1
REM
REM Run started: Sat, 12 Sep 2020 18:49:43 +0100 in /lustre/scratch/uccabz1/launch_tmp/launcher_2020-09-12-16-58-02-273012
REM CASTEP 20.1 from code version af48c487+ pr-geom-scf-spinfix Tue Jun 2 15:39:59 2020 +0100
REM Functional Perdew Burke Ernzerhof Relativity Koelling-Harmon Dispersion off
REM Cut-off 340.0000 eV Grid scale 1.7500 Gmax 16.5316 1/A FBSC none
REM MP grid 4 3 4 Offset 0.000 0.000 0.000 No. kpts 12 Spacing 0.07
REM Total runtime: 3252.76 s
REM Overall efficiency: 88.1429 %
REM
REM
REM
REM compiler GCC version 4.9.2
REM options -cpp -iprefix /lustre/shared/ucl/apps/gcc/4.9.2/bin/../lib/gcc/x86_64-unknown-linux-gnu/4.9.2/ -mtune=corei7 -march=x86-64 -g -Og
REM COMMAND_LINE
REM seed -1649239011 148257612 -1245951208 -292540355 830984161 1715247297 1946075894 294774386 604043879 726467539 -1236312833 -1974696282
REM
REM S 3|1.8|5|6|7|30:31:32(qc=5)
REM O 2|1.5|12|13|15|20:21(qc=5)
REM Li 1|1.3|8|9|10|10U:20(qc=5)
REM Fe 3|2.2|2.0|1.0|8|9|10|40:41:32(qc=5)
REM 
CELL 1.54180    5.75457    6.05563    4.36850   90.00000   90.00000  125.87158
LATT -1
SFAC Li O  S  Fe 
Li     1 -0.5249890000000  0.1773480000000 -0.0543010000000 1.0  -0.03
Li     1  0.5249890000000 -0.1773480000000 -0.0543010000000 1.0  -0.03
O      2 -0.1918070000000  0.1892010000000  0.0428970000000 1.0   0.25
O      2  0.1918070000000 -0.1892010000000  0.0428970000000 1.0   0.25
O      2  0.5000000000000 -0.5000000000000  0.1015830000000 1.0   0.07
S      3 -0.5000000000000  0.5000000000000 -0.5052830000000 1.0   0.04
Fe     4  0.0911330000000  0.2986560000000 -0.2451470000000 1.0   2.97
Fe     4 -0.0911330000000 -0.2986560000000 -0.2451470000000 1.0   2.97
Fe     4 -0.0000000000000  0.5000000000000  0.3162400000000 1.0   3.38
END
