TITL LFSO-Li4Fe2S3O2-200911-080357-f85536 -0.0698 523.008066 -8.62391066E+003 -0.174600E-01 7.04035 22 (Cm) n - 1
REM
REM Run started: Sat, 12 Sep 2020 08:24:25 +0100 in /lustre/scratch/uccabz1/launch_tmp/launcher_2020-09-12-06-22-13-573452
REM CASTEP 20.1 from code version af48c487+ pr-geom-scf-spinfix Tue Jun 2 15:39:59 2020 +0100
REM Functional Perdew Burke Ernzerhof Relativity Koelling-Harmon Dispersion off
REM Cut-off 340.0000 eV Grid scale 1.7500 Gmax 16.5316 1/A FBSC none
REM MP grid 3 3 2 Offset 0.000 0.000 0.000 No. kpts 6 Spacing 0.07
REM Total runtime: 77273.7 s
REM Overall efficiency: 98.8 %
REM
REM
REM
REM compiler GCC version 4.9.2
REM options -cpp -iprefix /lustre/shared/ucl/apps/gcc/4.9.2/bin/../lib/gcc/x86_64-unknown-linux-gnu/4.9.2/ -mtune=corei7 -march=x86-64 -g -Og
REM COMMAND_LINE
REM seed 1585895670 -1925314097 -65495070 -202375619 -306527658 -1477062885 -1349191698 -710420983 994222820 2140100375 -1597088699 -148620645
REM
REM S 3|1.8|5|6|7|30:31:32(qc=5)
REM O 2|1.5|12|13|15|20:21(qc=5)
REM Li 1|1.3|8|9|10|10U:20(qc=5)
REM Fe 3|2.2|2.0|1.0|8|9|10|40:41:32(qc=5)
REM 
CELL 1.54180    8.05776    8.00008    9.98184  107.02458   90.00000  120.23879
LATT -1
SFAC Li O  S  Fe 
Li     1  0.4650990000000  0.3687630000000  0.4276920000000 1.0   0.01
Li     1 -0.0963360000000  0.3687630000000  0.4276920000000 1.0   0.01
Li     1  0.2982280000000  0.0010140000000  0.4401140000000 1.0   0.01
Li     1 -0.2972140000000  0.0010140000000  0.4401140000000 1.0   0.01
Li     1 -0.1321100000000  0.2663420000000  0.0782360000000 1.0   0.03
Li     1 -0.6015480000000  0.2663420000000  0.0782360000000 1.0   0.03
Li     1  0.0223900000000 -0.3365100000000 -0.2703550000000 1.0   0.01
Li     1 -0.3589000000000 -0.3365100000000 -0.2703550000000 1.0   0.01
O      2 -0.0446720000000  0.5432830000000  0.1091560000000 1.0  -0.00
O      2  0.5879550000000  0.5432830000000  0.1091560000000 1.0  -0.00
O      2  0.0860570000000 -0.1920780000000 -0.0826640000000 1.0   0.15
O      2 -0.2781350000000 -0.1920780000000 -0.0826640000000 1.0   0.15
S      3 -0.3712340000000 -0.2827180000000 -0.5065640000000 1.0   0.00
S      3  0.0885160000000 -0.2827180000000 -0.5065640000000 1.0   0.00
S      3 -0.1907060000000  0.0660460000000  0.2310740000000 1.0   0.00
S      3  0.2567520000000  0.0660460000000  0.2310740000000 1.0   0.00
S      3  0.5148960000000  0.2946490000000 -0.3657740000000 1.0  -0.02
S      3 -0.2202480000000  0.2946490000000 -0.3657740000000 1.0  -0.02
Fe     4 -0.2422020000000 -0.2181660000000  0.0735050000000 1.0   1.38
Fe     4  0.0240360000000 -0.2181660000000  0.0735050000000 1.0   1.38
Fe     4 -0.2986810000000 -0.3499770000000  0.2888640000000 1.0  -1.58
Fe     4 -0.0512950000000 -0.3499770000000  0.2888640000000 1.0  -1.58
END
