TITL LFSO-Li4Fe2SO4-200910-144256-834a8f -0.0493 322.728482 -9.16102234E+003 8.75820 9.11707 22 (Imma) n - 1
REM
REM Run started: Fri, 11 Sep 2020 01:15:22 +0100 in /lustre/scratch/uccabz1/launch_tmp/launcher_2020-09-10-13-42-54-851221
REM CASTEP 20.1 from code version af48c487+ pr-geom-scf-spinfix Tue Jun 2 15:39:59 2020 +0100
REM Functional Perdew Burke Ernzerhof Relativity Koelling-Harmon Dispersion off
REM Cut-off 340.0000 eV Grid scale 1.7500 Gmax 16.5316 1/A FBSC none
REM MP grid 3 3 3 Offset 0.000 0.000 0.000 No. kpts 8 Spacing 0.07
REM Total runtime: 42197.8 s
REM Overall efficiency: 82.6667 %
REM
REM
REM
REM compiler GCC version 4.9.2
REM options -cpp -iprefix /lustre/shared/ucl/apps/gcc/4.9.2/bin/../lib/gcc/x86_64-unknown-linux-gnu/4.9.2/ -mtune=corei7 -march=x86-64 -g -Og
REM COMMAND_LINE
REM seed 886004308 1613925038 -239224855 1125350412 121805295 -1173750343 -1473503477 -98574805 -1131448510 -1101727438 -1398751250 -611430964
REM
REM S 3|1.8|5|6|7|30:31:32(qc=5)
REM O 2|1.5|12|13|15|20:21(qc=5)
REM Li 1|1.3|8|9|10|10U:20(qc=5)
REM Fe 3|2.2|2.0|1.0|8|9|10|40:41:32(qc=5)
REM 
CELL 1.54180    6.42876    7.78221    7.78221   81.83665   65.60396   65.60396
LATT -1
SFAC Li O  S  Fe 
Li     1  0.2325420000000 -0.3746530000000 -0.0868870000000 1.0   0.01
Li     1  0.2289970000000 -0.0868870000000 -0.3746530000000 1.0   0.01
Li     1 -0.2674580000000 -0.0868870000000 -0.3746530000000 1.0   0.01
Li     1 -0.2710030000000 -0.3746530000000 -0.0868870000000 1.0   0.01
Li     1 -0.4580980000000 -0.3978270000000  0.3103420000000 1.0   0.01
Li     1  0.5455830000000  0.3103420000000 -0.3978270000000 1.0   0.01
Li     1  0.0419020000000  0.3103420000000 -0.3978270000000 1.0   0.01
Li     1  0.0455830000000 -0.3978270000000  0.3103420000000 1.0   0.01
O      2 -0.2582430000000  0.0985910000000 -0.5698710000000 1.0   0.22
O      2 -0.2704770000000 -0.5698710000000  0.0985910000000 1.0   0.22
O      2  0.2417570000000 -0.5698710000000  0.0985910000000 1.0   0.22
O      2  0.2295230000000  0.0985910000000 -0.5698710000000 1.0   0.22
O      2  0.0446860000000 -0.2000630000000  0.1245940000000 1.0   0.22
O      2  0.0307820000000  0.1245940000000 -0.2000630000000 1.0   0.22
O      2  0.5446860000000  0.1245940000000 -0.2000630000000 1.0   0.22
O      2  0.5307820000000 -0.2000630000000  0.1245940000000 1.0   0.22
S      3 -0.3619610000000  0.6121930000000 -0.3882720000000 1.0   0.01
S      3  0.1380390000000 -0.3882720000000  0.6121930000000 1.0   0.01
Fe     4 -0.0503900000000  0.0105400000000  0.2175500000000 1.0   1.72
Fe     4 -0.1776990000000  0.2175500000000  0.0105400000000 1.0   1.72
Fe     4  0.4496100000000  0.2175500000000  0.0105400000000 1.0   1.72
Fe     4  0.3223010000000  0.0105400000000  0.2175500000000 1.0   1.72
END
