TITL LFSO-Li2Fe2S2O-200913-124544-3cb778 0.0412 227.533146 -6.34484675E+003 9.55106 10.0082 14 (Cm) n - 1
REM
REM Run started: Sun, 13 Sep 2020 16:22:36 +0100 in /lustre/scratch/uccabz1/launch_tmp/launcher_2020-09-13-11-45-43-269894
REM CASTEP 20.1 from code version af48c487+ pr-geom-scf-spinfix Tue Jun 2 15:39:59 2020 +0100
REM Functional Perdew Burke Ernzerhof Relativity Koelling-Harmon Dispersion off
REM Cut-off 340.0000 eV Grid scale 1.7500 Gmax 16.5316 1/A FBSC none
REM MP grid 4 3 3 Offset 0.000 0.000 0.000 No. kpts 18 Spacing 0.07
REM Total runtime: 13153.9 s
REM Overall efficiency: 86 %
REM
REM
REM
REM compiler GCC version 4.9.2
REM options -cpp -iprefix /lustre/shared/ucl/apps/gcc/4.9.2/bin/../lib/gcc/x86_64-unknown-linux-gnu/4.9.2/ -mtune=corei7 -march=x86-64 -g -Og
REM COMMAND_LINE
REM seed 755635480 -1215780091 1632769892 1003740552 -281894861 -1017451238 -527616242 -1371175057 1484277267 -261155413 1786465775 -167197142
REM
REM S 3|1.8|5|6|7|30:31:32(qc=5)
REM O 2|1.5|12|13|15|20:21(qc=5)
REM Li 1|1.3|8|9|10|10U:20(qc=5)
REM Fe 3|2.2|2.0|1.0|8|9|10|40:41:32(qc=5)
REM 
CELL 1.54180    5.94373    7.67163    6.53067   77.48114   55.97518   67.20824
LATT -1
SFAC Li O  S  Fe 
Li     1  0.0610040000000 -0.5224270000000 -0.0646080000000 1.0   0.01
Li     1  0.5385770000000  0.5224270000000 -0.0646080000000 1.0   0.01
Li     1  0.3500540000000  0.2234620000000  0.5778040000000 1.0   0.03
Li     1 -0.4264840000000 -0.2234620000000  0.5778040000000 1.0   0.03
O      2 -0.4414890000000 -0.2267420000000 -0.1234940000000 1.0   0.11
O      2  0.3317680000000  0.2267420000000 -0.1234940000000 1.0   0.11
S      3 -0.0309940000000 -0.2645070000000  0.1649030000000 1.0   0.04
S      3 -0.2955000000000  0.2645060000000  0.1649030000000 1.0   0.04
S      3  0.1967070000000 -0.2724930000000 -0.4273380000000 1.0   0.06
S      3 -0.0757860000000  0.2724930000000 -0.4273380000000 1.0   0.06
Fe     4  0.2668020000000 -0.1678400000000  0.2038390000000 1.0   2.67
Fe     4  0.0989630000000  0.1678390000000  0.2038390000000 1.0   2.67
Fe     4 -0.2185020000000 -0.1508550000000 -0.0723120000000 1.0   1.84
Fe     4 -0.3693560000000  0.1508550000000 -0.0723120000000 1.0   1.84
END
