TITL LFSO-LiFeSO-200909-035004-69d26a -0.0106 46.596735 -1.80446755E+003 3.99094 4.00652 4 (P4/mmm) n - 1
REM
REM Run started: Wed, 09 Sep 2020 03:52:29 +0100 in /lustre/scratch/uccabz1/launch_tmp/launcher_2020-09-09-02-50-02-149280
REM CASTEP 20.1 from code version af48c487+ pr-geom-scf-spinfix Tue Jun 2 15:39:59 2020 +0100
REM Functional Perdew Burke Ernzerhof Relativity Koelling-Harmon Dispersion off
REM Cut-off 340.0000 eV Grid scale 1.7500 Gmax 16.5316 1/A FBSC none
REM MP grid 5 5 4 Offset 0.000 0.000 0.000 No. kpts 18 Spacing 0.07
REM Total runtime: 165.56 s
REM Overall efficiency: 70 %
REM
REM
REM
REM compiler GCC version 4.9.2
REM options -cpp -iprefix /lustre/shared/ucl/apps/gcc/4.9.2/bin/../lib/gcc/x86_64-unknown-linux-gnu/4.9.2/ -mtune=corei7 -march=x86-64 -g -Og
REM COMMAND_LINE
REM seed -794526275 356598187 2145454378 1721585651 186066867 2145895585 1884636370 1734080667 -1082974188 -1887088791 166063457 151842527
REM
REM S 3|1.8|5|6|7|30:31:32(qc=5)
REM O 2|1.5|12|13|15|20:21(qc=5)
REM Li 1|1.3|8|9|10|10U:20(qc=5)
REM Fe 3|2.2|2.0|1.0|8|9|10|40:41:32(qc=5)
REM 
CELL 1.54180    3.18595    3.18595    4.59068   90.00000   90.00000   90.04898
LATT -1
SFAC Li O  S  Fe 
Li     1  0.0000000000000  0.0000000000000 -0.5000000000000 1.0  -0.02
O      2  0.0000000000000  0.0000000000000  0.0000000000000 1.0   0.33
S      3 -0.5000000000000 -0.5000000000000  0.5000000000000 1.0   0.17
Fe     4 -0.5000000000000 -0.5000000000000  0.0000000000000 1.0   3.52
END
