TITL LFSO-Li3FeSO2-200911-152346-a0e8d2 -0.0503 206.504736 -5.28874154E+003 -0.460090E-10 7.83540 14 (R-3) n - 1
REM
REM Run started: Fri, 11 Sep 2020 21:20:34 +0100 in /lustre/scratch/uccabz1/launch_tmp/launcher_2020-09-11-14-23-43-796016
REM CASTEP 20.1 from code version af48c487+ pr-geom-scf-spinfix Tue Jun 2 15:39:59 2020 +0100
REM Functional Perdew Burke Ernzerhof Relativity Koelling-Harmon Dispersion off
REM Cut-off 340.0000 eV Grid scale 1.7500 Gmax 16.5316 1/A FBSC none
REM MP grid 3 3 3 Offset 0.000 0.000 0.000 No. kpts 6 Spacing 0.07
REM Total runtime: 24234 s
REM Overall efficiency: 96.7692 %
REM
REM
REM
REM compiler GCC version 4.9.2
REM options -cpp -iprefix /lustre/shared/ucl/apps/gcc/4.9.2/bin/../lib/gcc/x86_64-unknown-linux-gnu/4.9.2/ -mtune=corei7 -march=x86-64 -g -Og
REM COMMAND_LINE
REM seed 1407878481 -1416658861 2108420031 194015974 592257637 -616306234 177839484 -848851242 9575513 111311147 -375850762 -1512715287
REM
REM S 3|1.8|5|6|7|30:31:32(qc=5)
REM O 2|1.5|12|13|15|20:21(qc=5)
REM Li 1|1.3|8|9|10|10U:20(qc=5)
REM Fe 3|2.2|2.0|1.0|8|9|10|40:41:32(qc=5)
REM 
CELL 1.54180    7.26318    7.26318    7.26318   49.93624   49.93624   49.93624
LATT -1
SFAC Li O  S  Fe 
Li     1  0.4809240000000  0.2329540000000 -0.2389900000000 1.0   0.04
Li     1  0.2329540000000 -0.2389900000000  0.4809240000000 1.0   0.04
Li     1 -0.2389900000000  0.4809240000000  0.2329540000000 1.0   0.04
Li     1  0.3309430000000 -0.3914530000000 -0.1419620000000 1.0  -0.04
Li     1 -0.3914530000000 -0.1419620000000  0.3309430000000 1.0  -0.04
Li     1 -0.1419620000000  0.3309430000000 -0.3914530000000 1.0  -0.04
O      2 -0.4555410000000  0.0418650000000  0.5414750000000 1.0   0.00
O      2  0.0418650000000  0.5414750000000 -0.4555410000000 1.0   0.00
O      2  0.5414750000000 -0.4555410000000  0.0418650000000 1.0   0.00
O      2 -0.4551620000000 -0.4551620000000 -0.4551620000000 1.0  -0.00
S      3  0.2263940000000  0.2263940000000  0.2263940000000 1.0   0.22
S      3 -0.1395160000000 -0.1395160000000 -0.1395160000000 1.0  -0.21
Fe     4 -0.2610920000000 -0.2610920000000 -0.2610920000000 1.0  -3.51
Fe     4  0.3478690000000  0.3478690000000  0.3478690000000 1.0   3.51
END
