TITL LFSO-LiFeSO-200921-181131-62a1bc 1.6914 350.219754 -9.02492189E+003 -9.14541 16.2342 20 (P3) n - 1
REM
REM Run started: Tue, 22 Sep 2020 10:58:27 +0100 in /lustre/scratch/uccabz1/launch_tmp/launcher_2020-09-22-08-15-57-694740
REM CASTEP 20.1 from code version af48c487+ pr-geom-scf-spinfix Tue Jun 2 15:39:59 2020 +0100
REM Functional Perdew Burke Ernzerhof Relativity Koelling-Harmon Dispersion off
REM Cut-off 340.0000 eV Grid scale 1.7500 Gmax 16.5316 1/A FBSC none
REM MP grid 3 3 2 Offset 0.000 0.000 0.000 No. kpts 5 Spacing 0.07
REM Total runtime: 54171.1 s
REM Overall efficiency: 76 %
REM
REM
REM
REM compiler GCC version 4.9.2
REM options -cpp -iprefix /lustre/shared/ucl/apps/gcc/4.9.2/bin/../lib/gcc/x86_64-unknown-linux-gnu/4.9.2/ -mtune=corei7 -march=x86-64 -g -Og
REM COMMAND_LINE
REM seed -230269774 1331991621 1255771029 -1638363812 316636613 -1684344145 1218898039 2101074220 -1437273673 -1580104492 -1340400872 1818652694
REM
REM S 3|1.8|5|6|7|30:31:32(qc=5)
REM O 2|1.5|12|13|15|20:21(qc=5)
REM Li 1|1.3|8|9|10|10U:20(qc=5)
REM Fe 3|2.2|2.0|1.0|8|9|10|40:41:32(qc=5)
REM 
CELL 1.54180    6.69413    6.69413    9.02447   90.00000   90.00000  120.00000
LATT -1
SFAC Li O  S  Fe 
Li     1 -0.1337830000000  0.1654100000000 -0.2537190000000 1.0   0.03
Li     1  0.2991930000000  0.1337830000000 -0.2537190000000 1.0   0.03
Li     1 -0.1654100000000 -0.2991930000000 -0.2537190000000 1.0   0.03
Li     1  0.3333330000000 -0.3333330000000 -0.2138980000000 1.0  -0.01
Li     1  0.3333330000000 -0.3333330000000  0.2506850000000 1.0  -0.01
O      2  0.1443900000000 -0.1765320000000 -0.1890170000000 1.0  -0.31
O      2 -0.3209220000000 -0.1443900000000 -0.1890170000000 1.0  -0.31
O      2  0.1765320000000  0.3209220000000 -0.1890170000000 1.0  -0.31
O      2  0.3333330000000 -0.3333330000000  0.0255150000000 1.0  -0.18
O      2 -0.3333330000000  0.3333330000000  0.4308770000000 1.0   0.37
S      3 -0.0011090000000  0.3072780000000  0.2351190000000 1.0   0.02
S      3  0.3083860000000  0.0011090000000  0.2351190000000 1.0   0.02
S      3 -0.3072780000000 -0.3083860000000  0.2351190000000 1.0   0.02
S      3 -0.3333330000000  0.3333330000000 -0.3902990000000 1.0   0.17
S      3 -0.3333330000000  0.3333330000000 -0.0127320000000 1.0  -0.21
Fe     4  0.1732180000000 -0.1664610000000  0.0058030000000 1.0  -3.07
Fe     4 -0.3396790000000 -0.1732180000000  0.0058030000000 1.0  -3.07
Fe     4  0.1664610000000  0.3396790000000  0.0058030000000 1.0  -3.07
Fe     4 -0.0000000000000  0.0000000000000  0.1696460000000 1.0  -1.94
Fe     4 -0.3333330000000  0.3333330000000  0.2300310000000 1.0   2.68
END
