TITL LFSO-LiFeSO-200909-062222-81290a -0.0123 50.024564 -1.80523254E+003 1.01159 1.10749 4 (P3m1) n - 1
REM
REM Run started: Wed, 09 Sep 2020 06:40:36 +0100 in /lustre/scratch/uccabz1/launch_tmp/launcher_2020-09-09-05-22-20-860211
REM CASTEP 20.1 from code version af48c487+ pr-geom-scf-spinfix Tue Jun 2 15:39:59 2020 +0100
REM Functional Perdew Burke Ernzerhof Relativity Koelling-Harmon Dispersion off
REM Cut-off 340.0000 eV Grid scale 1.7500 Gmax 16.5316 1/A FBSC none
REM MP grid 6 6 3 Offset 0.000 0.000 0.000 No. kpts 33 Spacing 0.07
REM Total runtime: 1222.29 s
REM Overall efficiency: 82.8 %
REM
REM
REM
REM compiler GCC version 4.9.2
REM options -cpp -iprefix /lustre/shared/ucl/apps/gcc/4.9.2/bin/../lib/gcc/x86_64-unknown-linux-gnu/4.9.2/ -mtune=corei7 -march=x86-64 -g -Og
REM COMMAND_LINE
REM seed 1853464885 -1247408013 1414023945 569949278 496273980 -1625817504 1074701583 -2098195737 -988799131 -1572837445 1141792274 1448822572
REM
REM S 3|1.8|5|6|7|30:31:32(qc=5)
REM O 2|1.5|12|13|15|20:21(qc=5)
REM Li 1|1.3|8|9|10|10U:20(qc=5)
REM Fe 3|2.2|2.0|1.0|8|9|10|40:41:32(qc=5)
REM 
CELL 1.54180    3.16179    3.16179    5.77813   90.00000   90.00000  120.00000
LATT -1
SFAC Li O  S  Fe 
Li     1 -0.3333330000000  0.3333330000000  0.5153340000000 1.0   0.00
O      2 -0.3333330000000  0.3333330000000 -0.1746180000000 1.0   0.06
S      3  0.3333330000000 -0.3333330000000  0.2118990000000 1.0  -0.05
Fe     4  0.0000000000000 -0.0000000000000 -0.0131910000000 1.0   0.99
END
