TITL LFSO-Li5FeSO3-200910-054125-e7262a 0.2335 340.218106 -6.95055132E+003 -0.186212E-02 7.23710 20 (P3) n - 1
REM
REM Run started: Thu, 10 Sep 2020 14:51:30 +0100 in /lustre/scratch/uccabz1/launch_tmp/launcher_2020-09-10-10-41-24-030769
REM CASTEP 20.1 from code version af48c487+ pr-geom-scf-spinfix Tue Jun 2 15:39:59 2020 +0100
REM Functional Perdew Burke Ernzerhof Relativity Koelling-Harmon Dispersion off
REM Cut-off 340.0000 eV Grid scale 1.7500 Gmax 16.5316 1/A FBSC none
REM MP grid 3 3 2 Offset 0.000 0.000 0.000 No. kpts 5 Spacing 0.07
REM Total runtime: 19902.8 s
REM Overall efficiency: 73.2143 %
REM
REM
REM
REM compiler GCC version 4.9.2
REM options -cpp -iprefix /lustre/shared/ucl/apps/gcc/4.9.2/bin/../lib/gcc/x86_64-unknown-linux-gnu/4.9.2/ -mtune=corei7 -march=x86-64 -g -Og
REM COMMAND_LINE
REM seed 1575595125 -735152279 -2046836564 1670123956 879628916 1039996632 -1563513286 363486667 1500747710 -113953906 969538790 2077797799
REM
REM S 3|1.8|5|6|7|30:31:32(qc=5)
REM O 2|1.5|12|13|15|20:21(qc=5)
REM Li 1|1.3|8|9|10|10U:20(qc=5)
REM Fe 3|2.2|2.0|1.0|8|9|10|40:41:32(qc=5)
REM 
CELL 1.54180    6.15997    6.15997   10.35310   90.00000   90.00000  120.00000
LATT -1
SFAC Li O  S  Fe 
Li     1 -0.1406460000000  0.1103690000000 -0.1463050000000 1.0   0.02
Li     1 -0.1103690000000 -0.2510150000000 -0.1463050000000 1.0   0.02
Li     1  0.2510150000000  0.1406460000000 -0.1463050000000 1.0   0.02
Li     1  0.0647870000000  0.5524840000000 -0.2698080000000 1.0  -0.04
Li     1 -0.5524840000000  0.5123030000000 -0.2698080000000 1.0  -0.04
Li     1 -0.5123030000000 -0.0647870000000 -0.2698080000000 1.0  -0.04
Li     1 -0.3255420000000 -0.1659080000000  0.5494780000000 1.0  -0.08
Li     1  0.1659080000000 -0.1596340000000  0.5494780000000 1.0  -0.08
Li     1  0.1596340000000  0.3255420000000  0.5494780000000 1.0  -0.08
Li     1 -0.3333340000000  0.3333340000000  0.1234460000000 1.0  -0.01
O      2  0.1856880000000 -0.1268190000000 -0.2580470000000 1.0  -0.01
O      2  0.1268190000000  0.3125080000000 -0.2580470000000 1.0  -0.01
O      2 -0.3125080000000 -0.1856880000000 -0.2580470000000 1.0  -0.01
O      2  0.2666460000000  0.1697300000000  0.0407940000000 1.0   0.00
O      2 -0.1697300000000  0.0969170000000  0.0407940000000 1.0   0.00
O      2 -0.0969170000000 -0.2666460000000  0.0407940000000 1.0   0.00
S      3  0.3333330000000 -0.3333330000000  0.4008660000000 1.0   0.03
S      3 -0.0000000000000  0.0000000000000  0.0995410000000 1.0   0.03
Fe     4 -0.3333340000000  0.3333340000000  0.4267550000000 1.0   3.67
Fe     4 -0.0000000000000  0.0000000000000  0.3029940000000 1.0  -3.41
END
