TITL LFSO-LiFe3S4O-200909-093010-6074c9 -0.5253 480.098171 -8.88567498E+003 -14.0616 15.4011 18 (I222) n - 1
REM
REM Run started: Thu, 10 Sep 2020 12:45:18 +0100 in /lustre/scratch/uccabz1/launch_tmp/launcher_2020-09-10-10-23-21-628473
REM CASTEP 20.1 from code version af48c487+ pr-geom-scf-spinfix Tue Jun 2 15:39:59 2020 +0100
REM Functional Perdew Burke Ernzerhof Relativity Koelling-Harmon Dispersion off
REM Cut-off 340.0000 eV Grid scale 1.7500 Gmax 16.5316 1/A FBSC none
REM MP grid 3 3 2 Offset 0.000 0.000 0.000 No. kpts 9 Spacing 0.07
REM Total runtime: 98602.7 s
REM Overall efficiency: 98.4545 %
REM
REM
REM
REM compiler GCC version 4.9.2
REM options -cpp -iprefix /lustre/shared/ucl/apps/gcc/4.9.2/bin/../lib/gcc/x86_64-unknown-linux-gnu/4.9.2/ -mtune=corei7 -march=x86-64 -g -Og
REM COMMAND_LINE
REM seed 568547539 495615666 1310435490 350900470 273939032 1157246781 2082573305 -1036736097 549202396 -246720132 -1734283609 370966438
REM
REM S 3|1.8|5|6|7|30:31:32(qc=5)
REM O 2|1.5|12|13|15|20:21(qc=5)
REM Li 1|1.3|8|9|10|10U:20(qc=5)
REM Fe 3|2.2|2.0|1.0|8|9|10|40:41:32(qc=5)
REM 
CELL 1.54180    9.25784    9.25784    9.25784   80.26663  117.25185  135.32945
LATT -1
SFAC Li O  S  Fe 
Li     1 -0.0000000000000  0.3439160000000  0.3439160000000 1.0   0.01
Li     1 -0.0000000000000 -0.3439160000000 -0.3439160000000 1.0   0.01
O      2  0.5000000000000 -0.0838480000000  0.4161520000000 1.0  -0.10
O      2 -0.5000000000000  0.0838480000000 -0.4161520000000 1.0  -0.10
S      3  0.0187540000000  0.3451330000000 -0.1443770000000 1.0  -0.11
S      3 -0.4895100000000 -0.3451330000000 -0.3263790000000 1.0  -0.11
S      3  0.4895100000000  0.1631310000000  0.1443770000000 1.0  -0.11
S      3 -0.0187540000000 -0.1631310000000  0.3263790000000 1.0  -0.11
S      3 -0.0346740000000  0.5444820000000  0.1544190000000 1.0  -0.08
S      3 -0.3900630000000 -0.5444820000000 -0.5791570000000 1.0  -0.08
S      3  0.3900630000000 -0.1890930000000 -0.1544190000000 1.0  -0.08
S      3  0.0346740000000  0.1890930000000  0.5791570000000 1.0  -0.08
Fe     4  0.2112000000000 -0.1826760000000  0.3609610000000 1.0  -2.06
Fe     4 -0.4563630000000  0.1826760000000  0.3938750000000 1.0  -2.06
Fe     4  0.4563630000000 -0.1497620000000 -0.3609610000000 1.0  -2.06
Fe     4 -0.2112000000000  0.1497620000000 -0.3938750000000 1.0  -2.06
Fe     4 -0.2236140000000  0.5000000000000  0.2763860000000 1.0  -2.21
Fe     4  0.2236140000000 -0.5000000000000 -0.2763860000000 1.0  -2.21
END
