TITL LFSO-LiFe3S2O3-200909-202357-5fcab2 -1.1942 225.829991 -9.42478634E+003 -0.127955 0.172038 18 (Pc) n - 1
REM
REM Run started: Fri, 11 Sep 2020 00:00:46 +0100 in /lustre/scratch/uccabz1/launch_tmp/launcher_2020-09-10-22-12-47-236311
REM CASTEP 20.1 from code version af48c487+ pr-geom-scf-spinfix Tue Jun 2 15:39:59 2020 +0100
REM Functional Perdew Burke Ernzerhof Relativity Koelling-Harmon Dispersion off
REM Cut-off 340.0000 eV Grid scale 1.7500 Gmax 16.5316 1/A FBSC none
REM MP grid 5 3 2 Offset 0.000 0.000 0.000 No. kpts 8 Spacing 0.07
REM Total runtime: 73065.5 s
REM Overall efficiency: 98.0909 %
REM
REM
REM
REM compiler GCC version 4.9.2
REM options -cpp -iprefix /lustre/shared/ucl/apps/gcc/4.9.2/bin/../lib/gcc/x86_64-unknown-linux-gnu/4.9.2/ -mtune=corei7 -march=x86-64 -g -Og
REM COMMAND_LINE
REM seed 773879448 882796189 421777336 -907631203 -1228814147 -227275241 -1792921891 1162009603 1707490367 1286559666 786266915 -2012875300
REM
REM S 3|1.8|5|6|7|30:31:32(qc=5)
REM O 2|1.5|12|13|15|20:21(qc=5)
REM Li 1|1.3|8|9|10|10U:20(qc=5)
REM Fe 3|2.2|2.0|1.0|8|9|10|40:41:32(qc=5)
REM 
CELL 1.54180    3.33666    5.90128   11.80180   90.00000   90.00000  103.64021
LATT -1
SFAC Li O  S  Fe 
Li     1 -0.4778620000000  0.0789350000000  0.2271550000000 1.0  -0.00
Li     1  0.0221380000000 -0.4210650000000 -0.2271550000000 1.0  -0.00
O      2 -0.3428620000000  0.3908400000000  0.3179820000000 1.0  -0.00
O      2  0.1571380000000 -0.1091600000000 -0.3179820000000 1.0  -0.00
O      2  0.2909480000000  0.7220230000000  0.2015950000000 1.0  -0.01
O      2 -0.2090520000000  0.2220230000000 -0.2015950000000 1.0  -0.01
O      2  0.0034180000000  0.0363020000000  0.3090640000000 1.0  -0.00
O      2  0.5034180000000 -0.4636980000000 -0.3090640000000 1.0  -0.00
S      3 -0.1097460000000  0.1902280000000 -0.4470050000000 1.0   0.00
S      3  0.3902540000000 -0.3097720000000  0.4470050000000 1.0   0.00
S      3  0.2809610000000  0.2804320000000  0.0329380000000 1.0   0.00
S      3 -0.2190390000000 -0.2195680000000 -0.0329380000000 1.0   0.00
Fe     4  0.0999700000000  0.3178430000000  0.3863250000000 1.0  -0.01
Fe     4 -0.4000300000000 -0.1821570000000 -0.3863250000000 1.0  -0.01
Fe     4 -0.2580820000000  0.1404110000000 -0.0604020000000 1.0  -0.03
Fe     4  0.2419180000000 -0.3595890000000  0.0604020000000 1.0  -0.03
Fe     4 -0.0857570000000 -0.2799340000000  0.3228050000000 1.0  -0.03
Fe     4  0.4142430000000  0.2200660000000 -0.3228050000000 1.0  -0.03
END
