TITL LFSO-Li4Fe2S3O-200911-005218-4d21a9 -0.0699 310.705971 -7.75316319E+003 11.0964 11.5967 20 (P3) n - 1
REM
REM Run started: Fri, 11 Sep 2020 19:59:29 +0100 in /lustre/scratch/uccabz1/launch_tmp/launcher_2020-09-10-23-52-16-484878
REM CASTEP 20.1 from code version af48c487+ pr-geom-scf-spinfix Tue Jun 2 15:39:59 2020 +0100
REM Functional Perdew Burke Ernzerhof Relativity Koelling-Harmon Dispersion off
REM Cut-off 340.0000 eV Grid scale 1.7500 Gmax 16.5316 1/A FBSC none
REM MP grid 3 3 3 Offset 0.000 0.000 0.000 No. kpts 8 Spacing 0.07
REM Total runtime: 72925.3 s
REM Overall efficiency: 98.6667 %
REM
REM
REM
REM compiler GCC version 4.9.2
REM options -cpp -iprefix /lustre/shared/ucl/apps/gcc/4.9.2/bin/../lib/gcc/x86_64-unknown-linux-gnu/4.9.2/ -mtune=corei7 -march=x86-64 -g -Og
REM COMMAND_LINE
REM seed -1642789392 -313838098 212658051 595621864 -522025086 -1169671303 1604675976 -1834527740 -1706491333 415887234 1057095312 -2141021587
REM
REM S 3|1.8|5|6|7|30:31:32(qc=5)
REM O 2|1.5|12|13|15|20:21(qc=5)
REM Li 1|1.3|8|9|10|10U:20(qc=5)
REM Fe 3|2.2|2.0|1.0|8|9|10|40:41:32(qc=5)
REM 
CELL 1.54180    7.37823    7.37823    6.59044   90.00000   90.00000  120.00000
LATT -1
SFAC Li O  S  Fe 
Li     1  0.8695500000000  0.1307710000000  0.2102100000000 1.0   0.03
Li     1 -0.1307710000000 -0.2612210000000  0.2102100000000 1.0   0.03
Li     1  0.2612210000000 -0.8695500000000  0.2102100000000 1.0   0.03
Li     1  0.1279910000000 -0.1290670000000  0.5398870000000 1.0  -0.02
Li     1  0.1290670000000  0.2570580000000  0.5398870000000 1.0  -0.02
Li     1 -0.2570580000000 -0.1279910000000  0.5398870000000 1.0  -0.02
Li     1 -0.3333330000000  0.3333330000000  0.4240190000000 1.0  -0.04
Li     1  0.3333330000000 -0.3333330000000  0.2913490000000 1.0   0.00
O      2  0.0000000000000 -0.0000000000000  0.3773820000000 1.0   0.01
O      2 -0.3333330000000  0.3333330000000 -0.0422140000000 1.0   0.16
S      3  0.0072000000000  0.5008330000000 -0.5446150000000 1.0   0.14
S      3 -0.5008330000000 -0.4936330000000 -0.5446150000000 1.0   0.14
S      3  0.4936330000000 -0.0072000000000 -0.5446150000000 1.0   0.14
S      3  0.2043570000000  0.3294700000000 -0.0835660000000 1.0   0.09
S      3 -0.3294700000000 -0.1251130000000 -0.0835660000000 1.0   0.09
S      3  0.1251130000000 -0.2043570000000 -0.0835660000000 1.0   0.09
Fe     4 -0.4389290000000  0.0963820000000 -0.2178660000000 1.0   2.68
Fe     4 -0.0963820000000  0.4646900000000 -0.2178660000000 1.0   2.68
Fe     4 -0.4646900000000  0.4389290000000 -0.2178660000000 1.0   2.68
Fe     4  0.3333330000000 -0.3333330000000 -0.1255670000000 1.0   2.25
END
