TITL LFSO-Li5FeSO3-200910-064403-894fc3 0.0089 143.103720 -3.48215903E+003 5.00000 5.05143 10 (P3) n - 1
REM
REM Run started: Thu, 10 Sep 2020 07:20:48 +0100 in /lustre/scratch/uccabz1/launch_tmp/launcher_2020-09-10-05-44-02-100755
REM CASTEP 20.1 from code version af48c487+ pr-geom-scf-spinfix Tue Jun 2 15:39:59 2020 +0100
REM Functional Perdew Burke Ernzerhof Relativity Koelling-Harmon Dispersion off
REM Cut-off 340.0000 eV Grid scale 1.7500 Gmax 16.5316 1/A FBSC none
REM MP grid 3 4 4 Offset 0.000 0.000 0.000 No. kpts 24 Spacing 0.07
REM Total runtime: 2702.36 s
REM Overall efficiency: 82.1667 %
REM
REM
REM
REM compiler GCC version 4.9.2
REM options -cpp -iprefix /lustre/shared/ucl/apps/gcc/4.9.2/bin/../lib/gcc/x86_64-unknown-linux-gnu/4.9.2/ -mtune=corei7 -march=x86-64 -g -Og
REM COMMAND_LINE
REM seed 1907779149 -1732852400 401739100 -271283321 -1017858726 -989740673 -1789544029 -274988352 644629557 2143094351 -474949679 -1226823435
REM
REM S 3|1.8|5|6|7|30:31:32(qc=5)
REM O 2|1.5|12|13|15|20:21(qc=5)
REM Li 1|1.3|8|9|10|10U:20(qc=5)
REM Fe 3|2.2|2.0|1.0|8|9|10|40:41:32(qc=5)
REM 
CELL 1.54180    6.14477    5.18570    5.18570  120.00000   90.00000   90.00000
LATT -1
SFAC Li O  S  Fe 
Li     1 -0.2646020000000  0.0066460000000  0.3309670000000 1.0   0.04
Li     1 -0.2646020000000 -0.3309670000000 -0.3243220000000 1.0   0.04
Li     1 -0.2646020000000  0.3243220000000 -0.0066460000000 1.0   0.04
Li     1  0.0372650000000 -0.3333330000000  0.3333330000000 1.0  -0.05
Li     1  0.0648400000000  0.3333330000000 -0.3333330000000 1.0  -0.05
O      2 -0.0929080000000 -0.3290670000000 -0.0012150000000 1.0   0.30
O      2 -0.0929080000000  0.0012150000000 -0.3278520000000 1.0   0.30
O      2 -0.0929080000000  0.3278520000000  0.3290670000000 1.0   0.30
S      3  0.4138250000000 -0.0000000000000  0.0000000000000 1.0   0.26
Fe     4  0.0497170000000 -0.0000000000000  0.0000000000000 1.0   3.82
END
