TITL LFSO-Li2Fe2S2O-200913-122324-5658ab -0.0007 438.762149 -9.51691375E+003 21.3744 21.6863 21 (P31) n - 1
REM
REM Run started: Mon, 14 Sep 2020 02:13:52 +0100 in /lustre/scratch/uccabz1/launch_tmp/launcher_2020-09-13-11-23-22-494587
REM CASTEP 20.1 from code version af48c487+ pr-geom-scf-spinfix Tue Jun 2 15:39:59 2020 +0100
REM Functional Perdew Burke Ernzerhof Relativity Koelling-Harmon Dispersion off
REM Cut-off 340.0000 eV Grid scale 1.7500 Gmax 16.5316 1/A FBSC none
REM MP grid 3 2 2 Offset 0.000 0.000 0.000 No. kpts 6 Spacing 0.07
REM Total runtime: 50070.8 s
REM Overall efficiency: 98.1111 %
REM
REM
REM
REM compiler GCC version 4.9.2
REM options -cpp -iprefix /lustre/shared/ucl/apps/gcc/4.9.2/bin/../lib/gcc/x86_64-unknown-linux-gnu/4.9.2/ -mtune=corei7 -march=x86-64 -g -Og
REM COMMAND_LINE
REM seed -1404020313 -1504390021 -1055072994 612371148 -2035135351 -2143951235 -1992972742 1813267420 -1213067914 -1148264283 -1515220585 332017853
REM
REM S 3|1.8|5|6|7|30:31:32(qc=5)
REM O 2|1.5|12|13|15|20:21(qc=5)
REM Li 1|1.3|8|9|10|10U:20(qc=5)
REM Fe 3|2.2|2.0|1.0|8|9|10|40:41:32(qc=5)
REM 
CELL 1.54180    6.74671    8.66569    8.66569  120.00000   90.00000   90.00000
LATT -1
SFAC Li O  S  Fe 
Li     1 -0.2366130000000  0.1198920000000 -0.0069040000000 1.0  -0.03
Li     1  0.0967200000000  0.0069040000000  0.1267960000000 1.0  -0.03
Li     1  0.4300530000000 -0.1267960000000 -0.1198920000000 1.0  -0.03
Li     1 -0.4033580000000  0.0205300000000 -0.3347600000000 1.0  -0.00
Li     1 -0.0700250000000  0.3347600000000  0.3552900000000 1.0  -0.00
Li     1  0.2633080000000 -0.3552900000000 -0.0205300000000 1.0  -0.00
O      2  0.5074020000000  0.0866320000000 -0.1110940000000 1.0   0.25
O      2 -0.1592650000000  0.1110940000000  0.1977260000000 1.0   0.25
O      2  0.1740680000000 -0.1977260000000 -0.0866320000000 1.0   0.25
S      3  0.2592310000000 -0.6461490000000  0.2668220000000 1.0   0.23
S      3 -0.4074360000000 -0.2668220000000  0.0870290000000 1.0   0.23
S      3 -0.0741020000000 -0.0870290000000  0.6461490000000 1.0   0.23
S      3  0.3876340000000  0.0868580000000 -0.5183080000000 1.0   0.20
S      3 -0.2790330000000  0.5183080000000 -0.3948330000000 1.0   0.20
S      3  0.0543010000000  0.3948330000000 -0.0868580000000 1.0   0.20
Fe     4 -0.0168550000000 -0.2809650000000 -0.2525620000000 1.0   3.17
Fe     4  0.3164790000000  0.2525620000000 -0.0284030000000 1.0   3.17
Fe     4 -0.3501880000000  0.0284030000000  0.2809650000000 1.0   3.17
Fe     4 -0.1923920000000  0.5628920000000 -0.1248660000000 1.0   3.31
Fe     4  0.1409410000000  0.1248660000000  0.6877580000000 1.0   3.31
Fe     4  0.4742740000000 -0.6877580000000 -0.5628920000000 1.0   3.31
END
