TITL LFSO-Li4Fe3S4O-200926-172321-07309f -0.0704 610.890404 -1.00845446E+004 23.7919 24.2288 24 (Ccc2) n - 1
REM
REM Run started: Sun, 27 Sep 2020 10:26:01 +0100 in /lustre/scratch/uccabz1/launch_tmp/launcher_2020-09-27-08-22-47-288656
REM CASTEP 20.1 from code version af48c487+ pr-geom-scf-spinfix Tue Jun 2 15:39:59 2020 +0100
REM Functional Perdew Burke Ernzerhof Relativity Koelling-Harmon Dispersion off
REM Cut-off 340.0000 eV Grid scale 1.7500 Gmax 16.5316 1/A FBSC none
REM MP grid 3 3 2 Offset 0.000 0.000 0.000 No. kpts 4 Spacing 0.07
REM Total runtime: 60356.9 s
REM Overall efficiency: 96.5833 %
REM
REM
REM
REM compiler GCC version 4.9.2
REM options -cpp -iprefix /lustre/shared/ucl/apps/gcc/4.9.2/bin/../lib/gcc/x86_64-unknown-linux-gnu/4.9.2/ -mtune=corei7 -march=x86-64 -g -Og
REM COMMAND_LINE
REM seed -772834413 -1638485447 -1106503837 -1321998397 -1989532069 -20184559 -1388589252 -2078351007 -1078257896 998744474 1199126989 -42583263
REM
REM S 3|1.8|5|6|7|30:31:32(qc=5)
REM O 2|1.5|12|13|15|20:21(qc=5)
REM Li 1|1.3|8|9|10|10U:20(qc=5)
REM Fe 3|2.2|2.0|1.0|8|9|10|40:41:32(qc=5)
REM 
CELL 1.54180   10.21265   10.21265    8.65831   90.00000   90.00000  137.43102
LATT -1
SFAC Li O  S  Fe 
Li     1 -0.1684560000000  0.4172520000000  0.1359130000000 1.0   0.01
Li     1  0.1684560000000 -0.4172520000000  0.1359130000000 1.0   0.01
Li     1 -0.4172520000000  0.1684560000000 -0.3640870000000 1.0   0.01
Li     1  0.4172520000000 -0.1684560000000 -0.3640870000000 1.0   0.01
Li     1  0.6077090000000 -0.1639790000000 -0.0344330000000 1.0  -0.03
Li     1 -0.6077090000000  0.1639790000000 -0.0344330000000 1.0  -0.03
Li     1  0.1639790000000 -0.6077090000000  0.4655670000000 1.0  -0.03
Li     1 -0.1639790000000  0.6077090000000  0.4655670000000 1.0  -0.03
O      2  0.0000000000000 -0.5000000000000 -0.0318590000000 1.0   0.34
O      2  0.5000000000000 -0.0000000000000  0.4681410000000 1.0   0.34
S      3 -0.2635150000000  0.0577480000000 -0.2337580000000 1.0   0.35
S      3  0.2635150000000 -0.0577480000000 -0.2337580000000 1.0   0.35
S      3 -0.0577480000000  0.2635150000000  0.2662420000000 1.0   0.35
S      3  0.0577480000000 -0.2635150000000  0.2662420000000 1.0   0.35
S      3 -0.2950380000000 -0.5177550000000 -0.2823350000000 1.0   0.14
S      3  0.2950380000000  0.5177550000000 -0.2823350000000 1.0   0.14
S      3  0.5177550000000  0.2950380000000  0.2176650000000 1.0   0.14
S      3 -0.5177550000000 -0.2950380000000  0.2176650000000 1.0   0.14
Fe     4  0.3528200000000 -0.0003200000000  0.3375210000000 1.0   3.62
Fe     4 -0.3528200000000  0.0003200000000  0.3375210000000 1.0   3.62
Fe     4  0.0003200000000 -0.3528200000000 -0.1624790000000 1.0   3.62
Fe     4 -0.0003200000000  0.3528200000000 -0.1624790000000 1.0   3.62
Fe     4  0.5000000000000  0.5000000000000 -0.2791010000000 1.0   3.39
Fe     4  0.5000000000000  0.5000000000000  0.2208990000000 1.0   3.39
END
