TITL LFSO-LiFeSO-200921-200206-50f91a -0.0294 138.060829 -3.61007226E+003 -5.08985 5.36316 8 (Immm) n - 1
REM
REM Run started: Mon, 21 Sep 2020 20:27:55 +0100 in /lustre/scratch/uccabz1/launch_tmp/launcher_2020-09-21-19-02-04-466133
REM CASTEP 20.1 from code version af48c487+ pr-geom-scf-spinfix Tue Jun 2 15:39:59 2020 +0100
REM Functional Perdew Burke Ernzerhof Relativity Koelling-Harmon Dispersion off
REM Cut-off 340.0000 eV Grid scale 1.7500 Gmax 16.5316 1/A FBSC none
REM MP grid 4 3 3 Offset 0.000 0.000 0.000 No. kpts 12 Spacing 0.07
REM Total runtime: 2558.95 s
REM Overall efficiency: 94 %
REM
REM
REM
REM compiler GCC version 4.9.2
REM options -cpp -iprefix /lustre/shared/ucl/apps/gcc/4.9.2/bin/../lib/gcc/x86_64-unknown-linux-gnu/4.9.2/ -mtune=corei7 -march=x86-64 -g -Og
REM COMMAND_LINE
REM seed 1436133100 2132305888 -550808294 -1348560088 -946841637 1790841684 -573268874 1696987481 -1367393534 -1785075846 1511315912 -977955596
REM
REM S 3|1.8|5|6|7|30:31:32(qc=5)
REM O 2|1.5|12|13|15|20:21(qc=5)
REM Li 1|1.3|8|9|10|10U:20(qc=5)
REM Fe 3|2.2|2.0|1.0|8|9|10|40:41:32(qc=5)
REM 
CELL 1.54180    5.27567    6.03944    6.03944  100.57611   64.10212   64.10212
LATT -1
SFAC Li O  S  Fe 
Li     1 -0.2875990000000  0.5000000000000  0.5000000000000 1.0  -0.01
Li     1  0.2875990000000 -0.5000000000000 -0.5000000000000 1.0  -0.01
O      2 -0.2414340000000  0.2414340000000  0.2414340000000 1.0  -0.23
O      2  0.2414340000000 -0.2414340000000 -0.2414340000000 1.0  -0.23
S      3 -0.5000000000000  0.1799230000000 -0.1799230000000 1.0  -0.15
S      3  0.5000000000000 -0.1799230000000  0.1799230000000 1.0  -0.15
Fe     4  0.2459340000000  0.0000000000000  0.0000000000000 1.0  -2.16
Fe     4 -0.2459340000000  0.0000000000000 -0.0000000000000 1.0  -2.16
END
