TITL LFSO-Li3FeSO2-200911-151308-98683c -0.0456 380.280826 -7.93064420E+003 9.01937 9.77037 21 (P32) n - 1
REM
REM Run started: Sat, 12 Sep 2020 00:29:21 +0100 in /lustre/scratch/uccabz1/launch_tmp/launcher_2020-09-11-14-13-06-359480
REM CASTEP 20.1 from code version af48c487+ pr-geom-scf-spinfix Tue Jun 2 15:39:59 2020 +0100
REM Functional Perdew Burke Ernzerhof Relativity Koelling-Harmon Dispersion off
REM Cut-off 340.0000 eV Grid scale 1.7500 Gmax 16.5316 1/A FBSC none
REM MP grid 3 2 2 Offset 0.000 0.000 0.000 No. kpts 6 Spacing 0.07
REM Total runtime: 36839.5 s
REM Overall efficiency: 96.5 %
REM
REM
REM
REM compiler GCC version 4.9.2
REM options -cpp -iprefix /lustre/shared/ucl/apps/gcc/4.9.2/bin/../lib/gcc/x86_64-unknown-linux-gnu/4.9.2/ -mtune=corei7 -march=x86-64 -g -Og
REM COMMAND_LINE
REM seed -2059344276 -207579716 1568788513 1409663664 872574795 -2000302310 1061171175 1433428399 -1501384678 -1789763559 671869973 -2059542484
REM
REM S 3|1.8|5|6|7|30:31:32(qc=5)
REM O 2|1.5|12|13|15|20:21(qc=5)
REM Li 1|1.3|8|9|10|10U:20(qc=5)
REM Fe 3|2.2|2.0|1.0|8|9|10|40:41:32(qc=5)
REM 
CELL 1.54180    6.37356    8.30034    8.30034  120.00000   90.00000   90.00000
LATT -1
SFAC Li O  S  Fe 
Li     1 -0.0412650000000  0.0621550000000  0.3758310000000 1.0  -0.00
Li     1  0.2920690000000  0.3136750000000 -0.0621550000000 1.0  -0.00
Li     1  0.6254020000000 -0.3758310000000 -0.3136750000000 1.0  -0.00
Li     1 -0.2492650000000 -0.1765630000000  0.4666530000000 1.0  -0.01
Li     1  0.0840690000000 -0.3567840000000  0.1765630000000 1.0  -0.01
Li     1 -0.5825980000000 -0.4666530000000  0.3567840000000 1.0  -0.01
Li     1  0.4046390000000  0.1315600000000  0.1351570000000 1.0   0.00
Li     1 -0.2620280000000  0.0035970000000 -0.1315600000000 1.0   0.00
Li     1  0.0713050000000 -0.1351570000000 -0.0035970000000 1.0   0.00
O      2  0.1255230000000  0.1079030000000  0.2079330000000 1.0   0.19
O      2 -0.5411440000000  0.1000300000000 -0.1079030000000 1.0   0.19
O      2 -0.2078110000000 -0.2079330000000 -0.1000300000000 1.0   0.19
O      2  0.1829770000000  0.4383370000000  0.1954590000000 1.0   0.16
O      2  0.5163110000000 -0.2428780000000 -0.4383370000000 1.0   0.16
O      2 -0.1503560000000 -0.1954590000000  0.2428780000000 1.0   0.16
S      3  0.0271950000000  0.0456670000000 -0.3189610000000 1.0   0.12
S      3  0.3605290000000  0.6353720000000 -0.0456670000000 1.0   0.12
S      3 -0.3061380000000  0.3189610000000 -0.6353720000000 1.0   0.12
Fe     4 -0.3334070000000 -0.2453930000000  0.0631330000000 1.0   2.55
Fe     4 -0.0000740000000  0.3085260000000  0.2453930000000 1.0   2.55
Fe     4  0.3332590000000 -0.0631330000000 -0.3085260000000 1.0   2.55
END
