TITL LFSO-Li6FeSO3-200909-205131-7bc9f0 0.2603 366.055149 -7.35845997E+003 7.69511 7.92929 22 (Pcc2) n - 1
REM
REM Run started: Thu, 10 Sep 2020 00:29:52 +0100 in /lustre/scratch/uccabz1/launch_tmp/launcher_2020-09-09-22-07-55-630676
REM CASTEP 20.1 from code version af48c487+ pr-geom-scf-spinfix Tue Jun 2 15:39:59 2020 +0100
REM Functional Perdew Burke Ernzerhof Relativity Koelling-Harmon Dispersion off
REM Cut-off 340.0000 eV Grid scale 1.7500 Gmax 16.5316 1/A FBSC none
REM MP grid 2 2 3 Offset 0.000 0.000 0.000 No. kpts 2 Spacing 0.07
REM Total runtime: 12183 s
REM Overall efficiency: 95.2727 %
REM
REM
REM
REM compiler GCC version 4.9.2
REM options -cpp -iprefix /lustre/shared/ucl/apps/gcc/4.9.2/bin/../lib/gcc/x86_64-unknown-linux-gnu/4.9.2/ -mtune=corei7 -march=x86-64 -g -Og
REM COMMAND_LINE
REM seed 360281044 1406337340 -104793835 -636088190 592038756 -1759956216 -591191468 636087354 1992219935 -323783526 -653931456 -966130203
REM
REM S 3|1.8|5|6|7|30:31:32(qc=5)
REM O 2|1.5|12|13|15|20:21(qc=5)
REM Li 1|1.3|8|9|10|10U:20(qc=5)
REM Fe 3|2.2|2.0|1.0|8|9|10|40:41:32(qc=5)
REM 
CELL 1.54180    6.71960    8.45906    6.43992   90.00000   90.00000   90.00000
LATT -1
SFAC Li O  S  Fe 
Li     1  0.1313960000000  0.2231150000000  0.1744010000000 1.0  -0.02
Li     1 -0.1313960000000 -0.2231150000000  0.1744010000000 1.0  -0.02
Li     1  0.1313960000000 -0.2231150000000 -0.3255990000000 1.0  -0.02
Li     1 -0.1313960000000  0.2231150000000 -0.3255990000000 1.0  -0.02
Li     1  0.2395200000000  0.4484770000000 -0.3236170000000 1.0  -0.01
Li     1 -0.2395200000000 -0.4484770000000 -0.3236170000000 1.0  -0.01
Li     1  0.2395200000000 -0.4484770000000  0.1763830000000 1.0  -0.01
Li     1 -0.2395200000000  0.4484770000000  0.1763830000000 1.0  -0.01
Li     1  0.4576840000000  0.3617380000000 -0.0451580000000 1.0  -0.01
Li     1 -0.4576840000000 -0.3617380000000 -0.0451580000000 1.0  -0.01
Li     1  0.4576840000000 -0.3617380000000  0.4548420000000 1.0  -0.01
Li     1 -0.4576840000000  0.3617380000000  0.4548420000000 1.0  -0.01
O      2  0.3322310000000 -0.1624260000000 -0.4876100000000 1.0   0.22
O      2 -0.3322310000000  0.1624260000000 -0.4876100000000 1.0   0.22
O      2  0.3322310000000  0.1624260000000  0.0123900000000 1.0   0.22
O      2 -0.3322310000000 -0.1624260000000  0.0123900000000 1.0   0.22
O      2 -0.5000000000000  0.5000000000000 -0.3066100000000 1.0   0.00
O      2  0.5000000000000 -0.5000000000000  0.1933900000000 1.0   0.00
S      3  0.0000000000000  0.5000000000000  0.4245620000000 1.0   0.00
S      3  0.0000000000000 -0.5000000000000 -0.0754380000000 1.0   0.00
Fe     4  0.5000000000000  0.0000000000000  0.0383100000000 1.0   3.47
Fe     4 -0.5000000000000  0.0000000000000 -0.4616900000000 1.0   3.47
END
