TITL LFSO-Li3Fe3SO5-201001-234358-3bf9a1 0.0006 373.324850 -1.13670866E+004 17.9930 18.7818 24 (P1) n - 1
REM
REM Run started: Fri, 02 Oct 2020 19:51:30 +0100 in /scratch/scratch/mmm0366/launch_tmp/launcher_2020-10-01-22-43-56-440523
REM CASTEP 19.11| from code version Version unavailable
REM Functional Perdew Burke Ernzerhof Relativity Koelling-Harmon Dispersion off
REM Cut-off 340.0000 eV Grid scale 1.7500 Gmax 16.5316 1/A FBSC none
REM MP grid 4 3 2 Offset 0.000 0.000 0.000 No. kpts 8 Spacing 0.07
REM Total runtime: 78471.5 s
REM Overall efficiency: 98.5385 %
REM
REM
REM
REM compiler GCC version 4.9.2
REM options -cpp -iprefix /scratch/UCL/applications/gcc/4.9.2/bin/../lib/gcc/x86_64-unknown-linux-gnu/4.9.2/ -mtune=corei7 -march=x86-64 -g -O2
REM COMMAND_LINE
REM seed -2038266020 -1617737237 1238937246 909852327 -982171973 1066387656 -1726213865 -1247764885 243705490 400600130 1928717285 -809772475
REM
REM S 3|1.8|5|6|7|30:31:32(qc=5)
REM O 2|1.5|12|13|15|20:21(qc=5)
REM Li 1|1.3|8|9|10|10U:20(qc=5)
REM Fe 3|2.2|2.0|1.0|8|9|10|40:41:32(qc=5)
REM 
CELL 1.54180    7.03787    5.54419   14.28469   90.00000  137.94935   90.00000
LATT -1
SFAC Li O  S  Fe 
Li     1 -0.3806630000000  0.3539060000000 -0.4962220000000 1.0  -0.01
Li     1  0.3806630000000 -0.1460940000000  0.4962220000000 1.0  -0.01
Li     1  0.2157400000000 -0.5830530000000 -0.4361640000000 1.0   0.00
Li     1 -0.2157400000000 -0.0830530000000  0.4361640000000 1.0   0.00
Li     1 -0.1658900000000 -0.0504880000000  0.0875890000000 1.0   0.01
Li     1  0.1658900000000  0.4495120000000 -0.0875890000000 1.0   0.01
O      2 -0.3054360000000  0.0203940000000 -0.4583960000000 1.0   0.24
O      2  0.3054360000000  0.5203940000000  0.4583960000000 1.0   0.24
O      2 -0.0191440000000  0.2636080000000  0.1644390000000 1.0   0.27
O      2  0.0191440000000 -0.2363920000000 -0.1644390000000 1.0   0.27
O      2 -0.0217530000000 -0.2415990000000  0.0434010000000 1.0   0.46
O      2  0.0217530000000  0.2584010000000 -0.0434010000000 1.0   0.46
O      2 -0.4155430000000  0.1206270000000  0.2724620000000 1.0   0.24
O      2  0.4155430000000 -0.3793730000000 -0.2724620000000 1.0   0.24
O      2  0.2280470000000  0.0405330000000  0.5621660000000 1.0   0.13
O      2 -0.2280470000000  0.5405330000000 -0.5621660000000 1.0   0.13
S      3  0.3721720000000  0.1198230000000 -0.1647320000000 1.0  -0.07
S      3 -0.3721720000000 -0.3801770000000  0.1647320000000 1.0  -0.07
Fe     4  0.0667460000000 -0.5653120000000  0.0844700000000 1.0   3.77
Fe     4 -0.0667460000000 -0.0653120000000 -0.0844700000000 1.0   3.77
Fe     4  0.3802920000000 -0.0890180000000 -0.2887580000000 1.0   1.36
Fe     4 -0.3802920000000  0.4109820000000  0.2887580000000 1.0   1.36
Fe     4 -0.0195140000000 -0.0620380000000 -0.2832230000000 1.0   2.61
Fe     4  0.0195140000000  0.4379620000000  0.2832230000000 1.0   2.61
END
