TITL LFSO-LiFe3SO4-200909-005639-9c2aad -0.0593 296.759691 -9.68783669E+003 4.34670 16.4560 18 (Pm) n - 1
REM
REM Run started: Wed, 09 Sep 2020 15:17:04 +0100 in /lustre/scratch/uccabz1/launch_tmp/launcher_2020-09-08-23-56-37-508559
REM CASTEP 20.1 from code version af48c487+ pr-geom-scf-spinfix Tue Jun 2 15:39:59 2020 +0100
REM Functional Perdew Burke Ernzerhof Relativity Koelling-Harmon Dispersion off
REM Cut-off 340.0000 eV Grid scale 1.7500 Gmax 16.5316 1/A FBSC none
REM MP grid 4 4 2 Offset 0.000 0.000 0.000 No. kpts 8 Spacing 0.07
REM Total runtime: 51943 s
REM Overall efficiency: 94.875 %
REM
REM
REM
REM compiler GCC version 4.9.2
REM options -cpp -iprefix /lustre/shared/ucl/apps/gcc/4.9.2/bin/../lib/gcc/x86_64-unknown-linux-gnu/4.9.2/ -mtune=corei7 -march=x86-64 -g -Og
REM COMMAND_LINE
REM seed 2059846968 586703469 377933826 -460990804 735582527 -1025893563 946812221 -2137644995 12164347 1788855227 501815725 -486974521
REM
REM S 3|1.8|5|6|7|30:31:32(qc=5)
REM O 2|1.5|12|13|15|20:21(qc=5)
REM Li 1|1.3|8|9|10|10U:20(qc=5)
REM Fe 3|2.2|2.0|1.0|8|9|10|40:41:32(qc=5)
REM 
CELL 1.54180    5.49577    4.96340   12.64054   90.00000   90.00000  120.60934
LATT -1
SFAC Li O  S  Fe 
Li     1 -0.4016600000000 -0.4472530000000 -0.3593880000000 1.0  -0.03
Li     1 -0.4016600000000 -0.4472530000000  0.3593880000000 1.0  -0.03
O      2  0.3919740000000  0.3192620000000 -0.1692310000000 1.0   0.09
O      2  0.3919740000000  0.3192620000000  0.1692310000000 1.0   0.09
O      2 -0.1361700000000 -0.0772100000000  0.3007520000000 1.0  -0.28
O      2 -0.1361700000000 -0.0772100000000 -0.3007520000000 1.0  -0.28
O      2  0.0821750000000 -0.3320610000000 -0.1699590000000 1.0   0.07
O      2  0.0821750000000 -0.3320610000000  0.1699590000000 1.0   0.07
O      2 -0.5976480000000  0.1191910000000  0.3702560000000 1.0  -0.25
O      2 -0.5976480000000  0.1191910000000 -0.3702560000000 1.0  -0.25
S      3 -0.2677380000000 -0.0137260000000  0.0816960000000 1.0   0.01
S      3 -0.2677380000000 -0.0137260000000 -0.0816960000000 1.0   0.01
Fe     4  0.1866320000000 -0.0047800000000  0.2657010000000 1.0  -2.34
Fe     4  0.1866320000000 -0.0047800000000 -0.2657010000000 1.0  -2.34
Fe     4 -0.2639330000000 -0.5319210000000 -0.0957740000000 1.0   2.81
Fe     4 -0.2639330000000 -0.5319210000000  0.0957740000000 1.0   2.81
Fe     4  0.2858080000000 -0.4513260000000 -0.0870220000000 1.0   2.09
Fe     4  0.2858080000000 -0.4513260000000  0.0870220000000 1.0   2.09
END
