TITL LFSO-Li4Fe2SO3-200910-213324-e45ab9 -0.0267 136.643764 -4.14013404E+003 6.45322 6.90436 10 (F222) n - 1
REM
REM Run started: Thu, 10 Sep 2020 22:00:03 +0100 in /lustre/scratch/uccabz1/launch_tmp/launcher_2020-09-10-20-33-22-535929
REM CASTEP 20.1 from code version af48c487+ pr-geom-scf-spinfix Tue Jun 2 15:39:59 2020 +0100
REM Functional Perdew Burke Ernzerhof Relativity Koelling-Harmon Dispersion off
REM Cut-off 340.0000 eV Grid scale 1.7500 Gmax 16.5316 1/A FBSC none
REM MP grid 4 4 2 Offset 0.000 0.000 0.000 No. kpts 10 Spacing 0.07
REM Total runtime: 1637.9 s
REM Overall efficiency: 76 %
REM
REM
REM
REM compiler GCC version 4.9.2
REM options -cpp -iprefix /lustre/shared/ucl/apps/gcc/4.9.2/bin/../lib/gcc/x86_64-unknown-linux-gnu/4.9.2/ -mtune=corei7 -march=x86-64 -g -Og
REM COMMAND_LINE
REM seed 2113193643 2018785066 351849472 -717874740 898428864 -8034593 1211708547 -1991915104 -1547082888 209180229 1499419492 -938735467
REM
REM S 3|1.8|5|6|7|30:31:32(qc=5)
REM O 2|1.5|12|13|15|20:21(qc=5)
REM Li 1|1.3|8|9|10|10U:20(qc=5)
REM Fe 3|2.2|2.0|1.0|8|9|10|40:41:32(qc=5)
REM 
CELL 1.54180    4.11011    4.11011    8.60445  101.80626  101.80626   98.24096
LATT -1
SFAC Li O  S  Fe 
Li     1  0.3730940000000 -0.5284170000000  0.3473580000000 1.0  -0.09
Li     1  0.5284170000000 -0.3730940000000 -0.3473580000000 1.0  -0.09
Li     1 -0.0257350000000 -0.1242240000000  0.3473580000000 1.0  -0.09
Li     1  0.1242240000000  0.0257350000000 -0.3473580000000 1.0  -0.09
O      2  0.2606290000000 -0.2606290000000  0.0000000000000 1.0   0.17
O      2 -0.2606290000000  0.2606290000000  0.0000000000000 1.0   0.17
O      2  0.2500000000000 -0.2500000000000 -0.5000000000000 1.0   0.18
S      3 -0.2500000000000  0.2500000000000  0.5000000000000 1.0   0.18
Fe     4  0.2349300000000  0.2349300000000  0.0000000000000 1.0   3.06
Fe     4 -0.2349300000000 -0.2349300000000  0.0000000000000 1.0   3.06
END
