TITL LFSO-LiFe3S3O2-200909-115229-a31db8 0.0412 329.220423 -9.15667447E+003 -1.58085 1.82737 18 (R3) n - 1
REM
REM Run started: Thu, 10 Sep 2020 03:50:25 +0100 in /lustre/scratch/uccabz1/launch_tmp/launcher_2020-09-09-10-52-26-972891
REM CASTEP 20.1 from code version af48c487+ pr-geom-scf-spinfix Tue Jun 2 15:39:59 2020 +0100
REM Functional Perdew Burke Ernzerhof Relativity Koelling-Harmon Dispersion off
REM Cut-off 340.0000 eV Grid scale 1.7500 Gmax 16.5316 1/A FBSC none
REM MP grid 3 3 3 Offset 0.000 0.000 0.000 No. kpts 6 Spacing 0.07
REM Total runtime: 57677.2 s
REM Overall efficiency: 98 %
REM
REM
REM
REM compiler GCC version 4.9.2
REM options -cpp -iprefix /lustre/shared/ucl/apps/gcc/4.9.2/bin/../lib/gcc/x86_64-unknown-linux-gnu/4.9.2/ -mtune=corei7 -march=x86-64 -g -Og
REM COMMAND_LINE
REM seed -1003564911 -1378744451 2098948617 -870959734 561430278 287593847 79644849 -374789989 1794426427 -632200949 -163281065 940997746
REM
REM S 3|1.8|5|6|7|30:31:32(qc=5)
REM O 2|1.5|12|13|15|20:21(qc=5)
REM Li 1|1.3|8|9|10|10U:20(qc=5)
REM Fe 3|2.2|2.0|1.0|8|9|10|40:41:32(qc=5)
REM 
CELL 1.54180    7.43213    7.43213    7.43213   66.21019   66.21019   66.21019
LATT -1
SFAC Li O  S  Fe 
Li     1 -0.1429070000000 -0.1429070000000 -0.1429070000000 1.0   0.01
Li     1  0.3204430000000  0.3204430000000  0.3204430000000 1.0  -0.00
O      2  0.1377020000000 -0.4227490000000  0.3310060000000 1.0  -0.05
O      2  0.3310060000000  0.1377020000000 -0.4227490000000 1.0  -0.05
O      2 -0.4227490000000  0.3310060000000  0.1377020000000 1.0  -0.05
O      2 -0.0258900000000 -0.0258900000000 -0.0258900000000 1.0  -0.02
S      3 -0.2594960000000 -0.3632430000000  0.2517280000000 1.0   0.00
S      3  0.2517280000000 -0.2594960000000 -0.3632430000000 1.0   0.00
S      3 -0.3632430000000  0.2517280000000 -0.2594960000000 1.0   0.00
S      3  0.4607300000000 -0.1728570000000 -0.0543700000000 1.0   0.00
S      3 -0.0543700000000  0.4607300000000 -0.1728570000000 1.0   0.00
S      3 -0.1728570000000 -0.0543700000000  0.4607300000000 1.0   0.00
Fe     4 -0.2203280000000  0.2329980000000 -0.0580540000000 1.0  -0.12
Fe     4 -0.0580540000000 -0.2203280000000  0.2329980000000 1.0  -0.12
Fe     4  0.2329980000000 -0.0580540000000 -0.2203280000000 1.0  -0.12
Fe     4 -0.3318230000000 -0.4525730000000  0.0595200000000 1.0  -0.36
Fe     4  0.0595200000000 -0.3318230000000 -0.4525730000000 1.0  -0.36
Fe     4 -0.4525730000000  0.0595200000000 -0.3318230000000 1.0  -0.36
END
