TITL LFSO-LiFe3S4O-200909-083350-184e1b -0.0232 266.978158 -8.88551720E+003 -9.82785 10.6761 18 (P2) n - 1
REM
REM Run started: Thu, 10 Sep 2020 00:29:43 +0100 in /lustre/scratch/uccabz1/launch_tmp/launcher_2020-09-09-07-33-48-286281
REM CASTEP 20.1 from code version af48c487+ pr-geom-scf-spinfix Tue Jun 2 15:39:59 2020 +0100
REM Functional Perdew Burke Ernzerhof Relativity Koelling-Harmon Dispersion off
REM Cut-off 340.0000 eV Grid scale 1.7500 Gmax 16.5316 1/A FBSC none
REM MP grid 4 3 2 Offset 0.000 0.000 0.000 No. kpts 6 Spacing 0.07
REM Total runtime: 57521.8 s
REM Overall efficiency: 97.6 %
REM
REM
REM
REM compiler GCC version 4.9.2
REM options -cpp -iprefix /lustre/shared/ucl/apps/gcc/4.9.2/bin/../lib/gcc/x86_64-unknown-linux-gnu/4.9.2/ -mtune=corei7 -march=x86-64 -g -Og
REM COMMAND_LINE
REM seed -1721552699 -834875052 956591790 -533428007 2010764326 -1078963434 -426579687 455380371 -1841286249 -1267739837 -1270625901 1022865714
REM
REM S 3|1.8|5|6|7|30:31:32(qc=5)
REM O 2|1.5|12|13|15|20:21(qc=5)
REM Li 1|1.3|8|9|10|10U:20(qc=5)
REM Fe 3|2.2|2.0|1.0|8|9|10|40:41:32(qc=5)
REM 
CELL 1.54180    4.68345    6.41954    9.33592   90.00000   90.00000  107.98263
LATT -1
SFAC Li O  S  Fe 
Li     1 -0.3806460000000 -0.2613380000000 -0.1075060000000 1.0   0.02
Li     1  0.3806460000000  0.2613380000000 -0.1075060000000 1.0   0.02
O      2  0.1606690000000  0.3059260000000 -0.2692910000000 1.0  -0.06
O      2 -0.1606690000000 -0.3059260000000 -0.2692910000000 1.0  -0.06
S      3 -0.2960740000000  0.2579270000000  0.5257270000000 1.0  -0.10
S      3  0.2960740000000 -0.2579270000000  0.5257270000000 1.0  -0.10
S      3 -0.1356200000000  0.2318160000000  0.0673830000000 1.0  -0.01
S      3  0.1356200000000 -0.2318160000000  0.0673830000000 1.0  -0.01
S      3  0.3366210000000  0.2210780000000  0.2946010000000 1.0   0.01
S      3 -0.3366210000000 -0.2210780000000  0.2946010000000 1.0   0.01
S      3  0.2031310000000 -0.1858350000000 -0.2606310000000 1.0  -0.01
S      3 -0.2031310000000  0.1858350000000 -0.2606310000000 1.0  -0.01
Fe     4 -0.2475940000000 -0.4896380000000  0.1708460000000 1.0  -1.84
Fe     4  0.2475940000000  0.4896380000000  0.1708460000000 1.0  -1.84
Fe     4  0.1971260000000 -0.1343540000000  0.2956700000000 1.0  -0.08
Fe     4 -0.1971260000000  0.1343540000000  0.2956700000000 1.0  -0.08
Fe     4  0.2594700000000  0.3634360000000  0.5125660000000 1.0  -2.85
Fe     4 -0.2594700000000 -0.3634360000000  0.5125660000000 1.0  -2.85
END
