TITL LFSO-Li4Fe3SO4-200930-230817-611739 1.3879 135.138847 -5.44642214E+003 9.51345 9.63638 12 (P-1) n - 1
REM
REM Run started: Thu, 01 Oct 2020 04:01:15 +0100 in /lustre/scratch/uccabz1/launch_tmp/launcher_2020-09-30-22-08-15-491089
REM CASTEP 20.1 from code version af48c487+ pr-geom-scf-spinfix Tue Jun 2 15:39:59 2020 +0100
REM Functional Perdew Burke Ernzerhof Relativity Koelling-Harmon Dispersion off
REM Cut-off 340.0000 eV Grid scale 1.7500 Gmax 16.5316 1/A FBSC none
REM MP grid 5 3 3 Offset 0.000 0.000 0.000 No. kpts 23 Spacing 0.07
REM Total runtime: 19327.6 s
REM Overall efficiency: 79.8462 %
REM
REM
REM
REM compiler GCC version 4.9.2
REM options -cpp -iprefix /lustre/shared/ucl/apps/gcc/4.9.2/bin/../lib/gcc/x86_64-unknown-linux-gnu/4.9.2/ -mtune=corei7 -march=x86-64 -g -Og
REM COMMAND_LINE
REM seed -1641346954 -1192245338 -887445848 1570062447 1764184926 1735031672 1219699006 188722210 1146773786 1692782434 -934235029 1900065814
REM
REM S 3|1.8|5|6|7|30:31:32(qc=5)
REM O 2|1.5|12|13|15|20:21(qc=5)
REM Li 1|1.3|8|9|10|10U:20(qc=5)
REM Fe 3|2.2|2.0|1.0|8|9|10|40:41:32(qc=5)
REM 
CELL 1.54180    3.85959    6.85517    6.81347   91.91164  116.31573  118.40759
LATT -1
SFAC Li O  S  Fe 
Li     1 -0.4865330000000  0.0984950000000  0.1592600000000 1.0  -0.01
Li     1  0.4865330000000 -0.0984950000000 -0.1592600000000 1.0  -0.01
Li     1 -0.3932370000000 -0.6309090000000 -0.5224640000000 1.0  -0.04
Li     1  0.3932370000000  0.6309090000000  0.5224640000000 1.0  -0.04
O      2  0.0489440000000  0.2926740000000 -0.4970960000000 1.0   0.18
O      2 -0.0489440000000 -0.2926740000000  0.4970960000000 1.0   0.18
O      2  0.0485140000000  0.0038450000000 -0.2068840000000 1.0   0.21
O      2 -0.0485140000000 -0.0038450000000  0.2068840000000 1.0   0.21
S      3  0.0000000000000  0.5000000000000  0.0000000000000 1.0   0.26
Fe     4  0.2245450000000  0.3190600000000 -0.1710630000000 1.0   3.20
Fe     4 -0.2245450000000 -0.3190600000000  0.1710630000000 1.0   3.20
Fe     4  0.0000000000000  0.0000000000000  0.5000000000000 1.0   2.19
END
