TITL LFSO-Li4Fe3S2O3-201001-210730-e8e4cd 0.1751 341.632476 -1.06222005E+004 -17.0826 18.0449 24 (P1) n - 1
REM
REM Run started: Fri, 02 Oct 2020 14:46:35 +0100 in /scratch/scratch/mmm0366/launch_tmp/launcher_2020-10-02-13-23-21-848901
REM CASTEP 19.11| from code version Version unavailable
REM Functional Perdew Burke Ernzerhof Relativity Koelling-Harmon Dispersion off
REM Cut-off 340.0000 eV Grid scale 1.7500 Gmax 16.5316 1/A FBSC none
REM MP grid 5 2 2 Offset 0.000 0.000 0.000 No. kpts 6 Spacing 0.07
REM Total runtime: 63911.4 s
REM Overall efficiency: 97.4167 %
REM
REM
REM
REM compiler GCC version 4.9.2
REM options -cpp -iprefix /lustre/shared/ucl/apps/gcc/4.9.2/bin/../lib/gcc/x86_64-unknown-linux-gnu/4.9.2/ -mtune=corei7 -march=x86-64 -g -Og
REM COMMAND_LINE
REM seed -552164187 -1434211287 581481265 1382374041 -694053931 235132926 -1471751574 355927773 574515715 1574938332 -622075635 771490911
REM
REM S 3|1.8|5|6|7|30:31:32(qc=5)
REM O 2|1.5|12|13|15|20:21(qc=5)
REM Li 1|1.3|8|9|10|10U:20(qc=5)
REM Fe 3|2.2|2.0|1.0|8|9|10|40:41:32(qc=5)
REM 
CELL 1.54180    3.02083   12.20092    9.56181   75.78823   90.00000   90.00000
LATT -1
SFAC Li O  S  Fe 
Li     1 -0.0952420000000 -0.2243140000000  0.3524910000000 1.0   0.03
Li     1  0.4047580000000  0.2243140000000 -0.3524910000000 1.0   0.03
Li     1  0.2804530000000  0.2158230000000  0.0118050000000 1.0   0.00
Li     1 -0.2195470000000 -0.2158230000000 -0.0118050000000 1.0   0.00
Li     1  0.0363560000000 -0.4433670000000 -0.4089050000000 1.0   0.02
Li     1 -0.4636440000000  0.4433670000000  0.4089050000000 1.0   0.02
Li     1 -0.2816480000000 -0.4082760000000  0.1078210000000 1.0   0.00
Li     1  0.2183520000000  0.4082760000000 -0.1078210000000 1.0   0.00
O      2  0.2648490000000  0.0811330000000  0.1414800000000 1.0  -0.29
O      2 -0.2351510000000 -0.0811330000000 -0.1414800000000 1.0  -0.29
O      2 -0.2354820000000  0.3232690000000  0.0210460000000 1.0   0.05
O      2  0.2645180000000 -0.3232690000000 -0.0210460000000 1.0   0.05
O      2 -0.6028000000000 -0.1272680000000  0.3248340000000 1.0  -0.21
O      2 -0.1028000000000  0.1272680000000 -0.3248340000000 1.0  -0.21
S      3  0.2792770000000 -0.3000960000000 -0.2117830000000 1.0   0.06
S      3 -0.2207230000000  0.3000960000000  0.2117830000000 1.0   0.06
S      3  0.0661820000000 -0.4057290000000  0.3263440000000 1.0   0.00
S      3  0.5661820000000  0.4057290000000 -0.3263440000000 1.0   0.00
Fe     4 -0.1641390000000  0.0770460000000  0.5047780000000 1.0  -2.63
Fe     4  0.3358610000000 -0.0770460000000 -0.5047780000000 1.0  -2.63
Fe     4 -0.2143320000000 -0.1667070000000 -0.3003140000000 1.0  -2.19
Fe     4  0.2856680000000  0.1667070000000  0.3003140000000 1.0  -2.19
Fe     4 -0.2206230000000  0.0058450000000  0.2537420000000 1.0  -3.39
Fe     4  0.2793770000000 -0.0058450000000 -0.2537420000000 1.0  -3.39
END
