TITL LFSO-Li2Fe3S3O-200912-171551-f03234 -0.0096 116.464956 -4.33976230E+003 2.17170 3.56453 9 (P2/m) n - 1
REM
REM Run started: Sat, 12 Sep 2020 18:09:17 +0100 in /lustre/scratch/uccabz1/launch_tmp/launcher_2020-09-12-16-15-49-918835
REM CASTEP 20.1 from code version af48c487+ pr-geom-scf-spinfix Tue Jun 2 15:39:59 2020 +0100
REM Functional Perdew Burke Ernzerhof Relativity Koelling-Harmon Dispersion off
REM Cut-off 340.0000 eV Grid scale 1.7500 Gmax 16.5316 1/A FBSC none
REM MP grid 5 3 3 Offset 0.000 0.000 0.000 No. kpts 16 Spacing 0.07
REM Total runtime: 3338.52 s
REM Overall efficiency: 90.4 %
REM
REM
REM
REM compiler GCC version 4.9.2
REM options -cpp -iprefix /lustre/shared/ucl/apps/gcc/4.9.2/bin/../lib/gcc/x86_64-unknown-linux-gnu/4.9.2/ -mtune=corei7 -march=x86-64 -g -Og
REM COMMAND_LINE
REM seed 213235857 191205847 1496965584 756182788 -1479589245 1809205282 -557834841 -1700148549 -2072178642 -1806098441 -187168178 1724308885
REM
REM S 3|1.8|5|6|7|30:31:32(qc=5)
REM O 2|1.5|12|13|15|20:21(qc=5)
REM Li 1|1.3|8|9|10|10U:20(qc=5)
REM Fe 3|2.2|2.0|1.0|8|9|10|40:41:32(qc=5)
REM 
CELL 1.54180    3.19732    5.16346    7.05516   90.00000   89.23983   90.00000
LATT -1
SFAC Li O  S  Fe 
Li     1  0.0248820000000  0.5000000000000  0.3424530000000 1.0  -0.05
Li     1 -0.0248820000000 -0.5000000000000 -0.3424530000000 1.0  -0.05
O      2  0.5000000000000 -0.5000000000000  0.5000000000000 1.0   0.23
S      3 -0.5009790000000  0.0000000000000 -0.2600650000000 1.0  -0.03
S      3  0.5009790000000  0.0000000000000  0.2600650000000 1.0  -0.03
S      3  0.0000000000000  0.5000000000000  0.0000000000000 1.0  -0.01
Fe     4  0.5000000000000  0.2393710000000  0.0000000000000 1.0  -0.27
Fe     4 -0.5000000000000 -0.2393710000000  0.0000000000000 1.0  -0.27
Fe     4  0.0000000000000  0.0000000000000  0.5000000000000 1.0   2.64
END
