TITL LFSO-Li4Fe3S4O-200926-090614-173229 -0.1635 394.177701 -1.00872137E+004 -14.5433 15.1909 24 (P3) n - 1
REM
REM Run started: Sun, 27 Sep 2020 11:52:55 +0100 in /lustre/scratch/uccabz1/launch_tmp/launcher_2020-09-26-08-06-11-767956
REM CASTEP 20.1 from code version af48c487+ pr-geom-scf-spinfix Tue Jun 2 15:39:59 2020 +0100
REM Functional Perdew Burke Ernzerhof Relativity Koelling-Harmon Dispersion off
REM Cut-off 340.0000 eV Grid scale 1.7500 Gmax 16.5316 1/A FBSC none
REM MP grid 2 3 3 Offset 0.000 0.000 0.000 No. kpts 5 Spacing 0.07
REM Total runtime: 103508 s
REM Overall efficiency: 76.75 %
REM
REM
REM
REM compiler GCC version 4.9.2
REM options -cpp -iprefix /lustre/shared/ucl/apps/gcc/4.9.2/bin/../lib/gcc/x86_64-unknown-linux-gnu/4.9.2/ -mtune=corei7 -march=x86-64 -g -Og
REM COMMAND_LINE
REM seed -819581899 1505407660 -1383001544 1587769557 1097231467 -548906427 364565561 1663957065 1485905028 -891698933 -1845250596 420857405
REM
REM S 3|1.8|5|6|7|30:31:32(qc=5)
REM O 2|1.5|12|13|15|20:21(qc=5)
REM Li 1|1.3|8|9|10|10U:20(qc=5)
REM Fe 3|2.2|2.0|1.0|8|9|10|40:41:32(qc=5)
REM 
CELL 1.54180   10.80007    6.49183    6.49183  120.00000   90.00000   90.00000
LATT -1
SFAC Li O  S  Fe 
Li     1  0.1771780000000 -0.3715810000000  0.0618930000000 1.0  -0.03
Li     1  0.1771780000000 -0.5665260000000  0.3715810000000 1.0  -0.03
Li     1  0.1771780000000 -0.0618930000000  0.5665260000000 1.0  -0.03
Li     1  0.3897780000000  0.2773660000000  0.0338790000000 1.0   0.00
Li     1  0.3897780000000 -0.2434870000000 -0.2773660000000 1.0   0.00
Li     1  0.3897780000000 -0.0338790000000  0.2434870000000 1.0   0.00
Li     1 -0.4128870000000 -0.0000000000000  0.0000000000000 1.0   0.01
Li     1 -0.4104050000000 -0.3333330000000  0.3333330000000 1.0   0.01
O      2  0.6667930000000  0.3333330000000 -0.3333330000000 1.0  -0.03
O      2  0.4222170000000 -0.0000000000000  0.0000000000000 1.0  -0.01
S      3 -0.2834840000000 -0.2648310000000  0.0708590000000 1.0  -0.05
S      3 -0.2834840000000  0.3356900000000  0.2648310000000 1.0  -0.05
S      3 -0.2834840000000 -0.0708590000000 -0.3356900000000 1.0  -0.05
S      3 -0.0125180000000 -0.0686000000000  0.2634180000000 1.0  -0.06
S      3 -0.0125180000000  0.3320180000000  0.0686000000000 1.0  -0.06
S      3 -0.0125180000000 -0.2634180000000 -0.3320180000000 1.0  -0.06
S      3  0.1622480000000  0.3333330000000 -0.3333330000000 1.0  -0.12
S      3  0.3390520000000 -0.3333330000000  0.3333330000000 1.0  -0.01
Fe     4 -0.0509420000000  0.3325660000000  0.4334920000000 1.0  -2.54
Fe     4 -0.0509420000000  0.1009260000000 -0.3325660000000 1.0  -2.54
Fe     4 -0.0509420000000 -0.4334920000000 -0.1009260000000 1.0  -2.54
Fe     4 -0.2411040000000  0.0881630000000  0.4202190000000 1.0  -2.12
Fe     4 -0.2411040000000  0.3320560000000 -0.0881630000000 1.0  -2.12
Fe     4 -0.2411040000000 -0.4202190000000 -0.3320560000000 1.0  -2.12
END
