TITL LFSO-Li2Fe4SO4-200912-001838-154d84 0.0671 171.580515 -5.90844412E+003 -8.85851 9.24434 11 (R3) n - 1
REM
REM Run started: Sat, 12 Sep 2020 07:48:47 +0100 in /lustre/scratch/uccabz1/launch_tmp/launcher_2020-09-11-23-18-35-904463
REM CASTEP 20.1 from code version af48c487+ pr-geom-scf-spinfix Tue Jun 2 15:39:59 2020 +0100
REM Functional Perdew Burke Ernzerhof Relativity Koelling-Harmon Dispersion off
REM Cut-off 340.0000 eV Grid scale 1.7500 Gmax 16.5316 1/A FBSC none
REM MP grid 4 4 4 Offset 0.000 0.000 0.000 No. kpts 12 Spacing 0.07
REM Total runtime: 27094.3 s
REM Overall efficiency: 96.375 %
REM
REM
REM
REM compiler GCC version 4.9.2
REM options -cpp -iprefix /lustre/shared/ucl/apps/gcc/4.9.2/bin/../lib/gcc/x86_64-unknown-linux-gnu/4.9.2/ -mtune=corei7 -march=x86-64 -g -Og
REM COMMAND_LINE
REM seed -1439482371 -968381228 1695272137 -1865391605 686075523 707666056 -1990172435 1638939529 -619010340 1772365214 623984552 -1375079663
REM
REM S 3|1.8|5|6|7|30:31:32(qc=5)
REM O 2|1.5|12|13|15|20:21(qc=5)
REM Li 1|1.3|8|9|10|10U:20(qc=5)
REM Fe 3|2.2|2.0|1.0|8|9|10|40:41:32(qc=5)
REM 
CELL 1.54180    7.28160    7.28160    7.28160   44.36529   44.36529   44.36529
LATT -1
SFAC Li O  S  Fe 
Li     1  0.0335720000000  0.0335720000000  0.0335720000000 1.0   0.01
Li     1 -0.0847980000000 -0.0847980000000 -0.0847980000000 1.0   0.10
O      2 -0.0702340000000  0.2821080000000 -0.3499150000000 1.0  -0.15
O      2 -0.3499150000000 -0.0702340000000  0.2821080000000 1.0  -0.15
O      2  0.2821080000000 -0.3499150000000 -0.0702340000000 1.0  -0.15
O      2  0.1343420000000  0.1343420000000  0.1343420000000 1.0  -0.04
S      3  0.4672330000000  0.4672330000000  0.4672330000000 1.0   0.00
Fe     4  0.4037090000000 -0.0827850000000  0.2808160000000 1.0  -2.23
Fe     4  0.2808160000000  0.4037090000000 -0.0827850000000 1.0  -2.23
Fe     4 -0.0827850000000  0.2808160000000  0.4037090000000 1.0  -2.23
Fe     4 -0.3841680000000 -0.3841680000000 -0.3841680000000 1.0  -1.78
END
