TITL LFSO-Li4Fe2SO4-200910-153944-7a7833 1.1034 297.883169 -4.58063619E+003 -6.00025 6.29583 11 (R3) n - 1
REM
REM Run started: Fri, 11 Sep 2020 23:33:16 +0100 in /lustre/scratch/uccabz1/launch_tmp/launcher_2020-09-11-22-11-40-868693
REM CASTEP 20.1 from code version af48c487+ pr-geom-scf-spinfix Tue Jun 2 15:39:59 2020 +0100
REM Functional Perdew Burke Ernzerhof Relativity Koelling-Harmon Dispersion off
REM Cut-off 340.0000 eV Grid scale 1.7500 Gmax 16.5316 1/A FBSC none
REM MP grid 3 3 3 Offset 0.000 0.000 0.000 No. kpts 6 Spacing 0.07
REM Total runtime: 98834.5 s
REM Overall efficiency: 97.5833 %
REM
REM
REM
REM compiler GCC version 4.9.2
REM options -cpp -iprefix /lustre/shared/ucl/apps/gcc/4.9.2/bin/../lib/gcc/x86_64-unknown-linux-gnu/4.9.2/ -mtune=corei7 -march=x86-64 -g -Og
REM COMMAND_LINE
REM seed 1491142312 743415324 -1048506891 -1835771525 -720245826 1697873802 -1729434769 -378228148 1234939530 796827306 -1817768319 638672693
REM
REM S 3|1.8|5|6|7|30:31:32(qc=5)
REM O 2|1.5|12|13|15|20:21(qc=5)
REM Li 1|1.3|8|9|10|10U:20(qc=5)
REM Fe 3|2.2|2.0|1.0|8|9|10|40:41:32(qc=5)
REM 
CELL 1.54180   10.25758   10.25758   10.25758   33.81642   33.81642   33.81642
LATT -1
SFAC Li O  S  Fe 
Li     1  0.3303130000000 -0.5109820000000 -0.1201730000000 1.0  -0.01
Li     1 -0.1201730000000  0.3303130000000 -0.5109820000000 1.0  -0.01
Li     1 -0.5109820000000 -0.1201730000000  0.3303130000000 1.0  -0.01
Li     1  0.1117860000000  0.1117860000000  0.1117860000000 1.0  -0.00
O      2 -0.2074100000000 -0.1128380000000  0.3276880000000 1.0  -0.23
O      2  0.3276880000000 -0.2074100000000 -0.1128380000000 1.0  -0.23
O      2 -0.1128380000000  0.3276880000000 -0.2074100000000 1.0  -0.23
O      2  0.5861200000000  0.5861200000000  0.5861200000000 1.0  -0.24
S      3  0.1894710000000  0.1894710000000  0.1894710000000 1.0  -0.00
Fe     4  0.0032060000000  0.0032060000000  0.0032060000000 1.0  -1.58
Fe     4 -0.3484400000000 -0.3484400000000 -0.3484400000000 1.0  -3.47
END
