TITL LFSO-Li4Fe3S3O2-200926-074835-d6db7d 0.0440 391.345694 -1.03498930E+004 15.3268 16.6204 24 (Aem2) n - 1
REM
REM Run started: Sat, 26 Sep 2020 21:22:22 +0100 in /lustre/scratch/uccabz1/launch_tmp/launcher_2020-09-26-06-48-32-657707
REM CASTEP 20.1 from code version af48c487+ pr-geom-scf-spinfix Tue Jun 2 15:39:59 2020 +0100
REM Functional Perdew Burke Ernzerhof Relativity Koelling-Harmon Dispersion off
REM Cut-off 340.0000 eV Grid scale 1.7500 Gmax 16.5316 1/A FBSC none
REM MP grid 4 2 2 Offset 0.000 0.000 0.000 No. kpts 4 Spacing 0.07
REM Total runtime: 52808.8 s
REM Overall efficiency: 98.4167 %
REM
REM
REM
REM compiler GCC version 4.9.2
REM options -cpp -iprefix /lustre/shared/ucl/apps/gcc/4.9.2/bin/../lib/gcc/x86_64-unknown-linux-gnu/4.9.2/ -mtune=corei7 -march=x86-64 -g -Og
REM COMMAND_LINE
REM seed -674644161 -1756899514 -26410461 1346338331 -716892108 173958741 -963454528 1892755010 -952756608 -361041431 -1523734149 -501028144
REM
REM S 3|1.8|5|6|7|30:31:32(qc=5)
REM O 2|1.5|12|13|15|20:21(qc=5)
REM Li 1|1.3|8|9|10|10U:20(qc=5)
REM Fe 3|2.2|2.0|1.0|8|9|10|40:41:32(qc=5)
REM 
CELL 1.54180    3.37260   11.86527   11.86527  124.49106   90.00000   90.00000
LATT -1
SFAC Li O  S  Fe 
Li     1  0.3329070000000  0.5012450000000 -0.2648500000000 1.0  -0.05
Li     1 -0.3329070000000  0.2648500000000 -0.5012450000000 1.0  -0.05
Li     1  0.3329070000000 -0.2351500000000 -0.0012450000000 1.0  -0.05
Li     1 -0.3329070000000  0.0012450000000  0.2351500000000 1.0  -0.05
Li     1  0.2337280000000 -0.4410560000000  0.2647290000000 1.0  -0.00
Li     1 -0.2337280000000 -0.2647290000000  0.4410560000000 1.0  -0.00
Li     1  0.2337280000000  0.2352710000000 -0.0589440000000 1.0  -0.00
Li     1 -0.2337280000000  0.0589440000000 -0.2352710000000 1.0  -0.00
O      2  0.2774380000000 -0.2828000000000  0.5045040000000 1.0   0.12
O      2 -0.2774380000000 -0.5045040000000  0.2828000000000 1.0   0.12
O      2  0.2774380000000 -0.0045040000000 -0.2172000000000 1.0   0.12
O      2 -0.2774380000000  0.2172000000000  0.0045040000000 1.0   0.12
S      3 -0.2213980000000  0.1156740000000 -0.4303470000000 1.0   0.10
S      3  0.2213980000000  0.4303470000000 -0.1156740000000 1.0   0.10
S      3 -0.2213980000000 -0.0696530000000  0.3843260000000 1.0   0.10
S      3  0.2213980000000 -0.3843260000000  0.0696530000000 1.0   0.10
S      3  0.0000000000000 -0.0393100000000  0.0393100000000 1.0   0.02
S      3  0.0000000000000  0.4606900000000 -0.4606900000000 1.0   0.02
Fe     4  0.4298590000000  0.1519020000000  0.1122340000000 1.0   2.86
Fe     4 -0.4298590000000 -0.1122340000000 -0.1519020000000 1.0   2.86
Fe     4  0.4298590000000  0.3877660000000  0.3480980000000 1.0   2.86
Fe     4 -0.4298590000000 -0.3480980000000 -0.3877660000000 1.0   2.86
Fe     4  0.0865240000000 -0.1802470000000 -0.3197530000000 1.0   1.57
Fe     4 -0.0865240000000  0.3197530000000  0.1802470000000 1.0   1.57
END
