TITL LFSO-Li4Fe2SO4-200910-133100-110cb4 0.0458 207.445158 -4.57458306E+003 5.82983 6.16128 11 (P3) n - 1
REM
REM Run started: Thu, 10 Sep 2020 20:28:10 +0100 in /lustre/scratch/uccabz1/launch_tmp/launcher_2020-09-10-12-30-57-804841
REM CASTEP 20.1 from code version af48c487+ pr-geom-scf-spinfix Tue Jun 2 15:39:59 2020 +0100
REM Functional Perdew Burke Ernzerhof Relativity Koelling-Harmon Dispersion off
REM Cut-off 340.0000 eV Grid scale 1.7500 Gmax 16.5316 1/A FBSC none
REM MP grid 4 4 2 Offset 0.000 0.000 0.000 No. kpts 16 Spacing 0.07
REM Total runtime: 30050.4 s
REM Overall efficiency: 97.2857 %
REM
REM
REM
REM compiler GCC version 4.9.2
REM options -cpp -iprefix /lustre/shared/ucl/apps/gcc/4.9.2/bin/../lib/gcc/x86_64-unknown-linux-gnu/4.9.2/ -mtune=corei7 -march=x86-64 -g -Og
REM COMMAND_LINE
REM seed -954633766 -916939798 -778553914 -1132427671 8031302 598863693 -1302110576 -418532765 -1131823748 -1000107211 1979008179 -1308182017
REM
REM S 3|1.8|5|6|7|30:31:32(qc=5)
REM O 2|1.5|12|13|15|20:21(qc=5)
REM Li 1|1.3|8|9|10|10U:20(qc=5)
REM Fe 3|2.2|2.0|1.0|8|9|10|40:41:32(qc=5)
REM 
CELL 1.54180    4.92834    4.92834    9.86215   90.00000   90.00000  120.00000
LATT -1
SFAC Li O  S  Fe 
Li     1 -0.2918430000000 -0.2863990000000  0.1017710000000 1.0  -0.05
Li     1  0.0054440000000  0.2918430000000  0.1017710000000 1.0  -0.05
Li     1  0.2863990000000 -0.0054440000000  0.1017710000000 1.0  -0.05
Li     1 -0.3333330000000  0.3333330000000 -0.2904580000000 1.0  -0.01
O      2 -0.3316600000000 -0.0116440000000 -0.3542900000000 1.0   0.21
O      2  0.3200160000000  0.3316600000000 -0.3542900000000 1.0   0.21
O      2  0.0116440000000 -0.3200160000000 -0.3542900000000 1.0   0.21
O      2  0.0000000000000 -0.0000000000000  0.0047200000000 1.0   0.07
S      3  0.0000000000000 -0.0000000000000  0.3194500000000 1.0   0.14
Fe     4  0.3333330000000 -0.3333330000000  0.3920060000000 1.0   3.70
Fe     4  0.3333330000000 -0.3333330000000 -0.3495360000000 1.0   1.44
END
