TITL LFSO-Li2Fe3SO3-200912-151110-67b503 0.0005 139.678906 -4.60775396E+003 11.8781 12.0019 9 (P3) n - 1
REM
REM Run started: Sat, 12 Sep 2020 16:20:50 +0100 in /lustre/scratch/uccabz1/launch_tmp/launcher_2020-09-12-14-11-09-175237
REM CASTEP 20.1 from code version af48c487+ pr-geom-scf-spinfix Tue Jun 2 15:39:59 2020 +0100
REM Functional Perdew Burke Ernzerhof Relativity Koelling-Harmon Dispersion off
REM Cut-off 340.0000 eV Grid scale 1.7500 Gmax 16.5316 1/A FBSC none
REM MP grid 4 4 3 Offset 0.000 0.000 0.000 No. kpts 24 Spacing 0.07
REM Total runtime: 4451.05 s
REM Overall efficiency: 95.5 %
REM
REM
REM
REM compiler GCC version 4.9.2
REM options -cpp -iprefix /lustre/shared/ucl/apps/gcc/4.9.2/bin/../lib/gcc/x86_64-unknown-linux-gnu/4.9.2/ -mtune=corei7 -march=x86-64 -g -Og
REM COMMAND_LINE
REM seed -630879147 -909037742 1007506835 1731018180 1244834890 1636418717 -815053182 -1160559389 1648594947 -1434173659 1022589773 -1475738087
REM
REM S 3|1.8|5|6|7|30:31:32(qc=5)
REM O 2|1.5|12|13|15|20:21(qc=5)
REM Li 1|1.3|8|9|10|10U:20(qc=5)
REM Fe 3|2.2|2.0|1.0|8|9|10|40:41:32(qc=5)
REM 
CELL 1.54180    5.13949    5.13949    6.10604   90.00000   90.00000  120.00000
LATT -1
SFAC Li O  S  Fe 
Li     1 -0.3333330000000  0.3333330000000 -0.0649140000000 1.0  -0.01
Li     1  0.3333330000000 -0.3333330000000 -0.0529610000000 1.0   0.02
O      2  0.0147350000000 -0.3447470000000  0.1029900000000 1.0   0.39
O      2  0.3447470000000  0.3594820000000  0.1029900000000 1.0   0.39
O      2 -0.3594820000000 -0.0147350000000  0.1029900000000 1.0   0.39
S      3 -0.3333330000000  0.3333330000000 -0.4571170000000 1.0   0.22
Fe     4 -0.2785640000000 -0.3038840000000  0.2748440000000 1.0   3.50
Fe     4  0.3038840000000  0.0253200000000  0.2748440000000 1.0   3.50
Fe     4 -0.0253200000000  0.2785640000000  0.2748440000000 1.0   3.50
END
