TITL LFSO-Li6FeS2O2-200920-210306-6df09f 0.0054 455.450386 -3.54515073E+003 3.99868 4.23214 11 (Amm2) n - 1
REM
REM Run started: Sun, 20 Sep 2020 23:16:14 +0100 in /lustre/scratch/uccabz1/launch_tmp/launcher_2020-09-20-20-03-05-296234
REM CASTEP 20.1 from code version af48c487+ pr-geom-scf-spinfix Tue Jun 2 15:39:59 2020 +0100
REM Functional Perdew Burke Ernzerhof Relativity Koelling-Harmon Dispersion off
REM Cut-off 340.0000 eV Grid scale 1.7500 Gmax 16.5316 1/A FBSC none
REM MP grid 3 3 2 Offset 0.000 0.000 0.000 No. kpts 4 Spacing 0.07
REM Total runtime: 9303.93 s
REM Overall efficiency: 96.2727 %
REM
REM
REM
REM compiler GCC version 4.9.2
REM options -cpp -iprefix /lustre/shared/ucl/apps/gcc/4.9.2/bin/../lib/gcc/x86_64-unknown-linux-gnu/4.9.2/ -mtune=corei7 -march=x86-64 -g -Og
REM COMMAND_LINE
REM seed -1269720459 40455467 -1433521229 -656115363 -2011870703 -899019693 1069635643 31922720 -771869443 2063022289 -475387600 345745461
REM
REM S 3|1.8|5|6|7|30:31:32(qc=5)
REM O 2|1.5|12|13|15|20:21(qc=5)
REM Li 1|1.3|8|9|10|10U:20(qc=5)
REM Fe 3|2.2|2.0|1.0|8|9|10|40:41:32(qc=5)
REM 
CELL 1.54180    6.23014    6.23014   13.20451   90.00000   90.00000  117.29799
LATT -1
SFAC Li O  S  Fe 
Li     1 -0.1366990000000 -0.3101940000000 -0.1172450000000 1.0  -0.01
Li     1  0.3101940000000  0.1366990000000  0.1172450000000 1.0  -0.01
Li     1  0.3101940000000  0.1366990000000 -0.1172450000000 1.0  -0.01
Li     1 -0.1366990000000 -0.3101940000000  0.1172450000000 1.0  -0.01
Li     1  0.2835490000000 -0.2835490000000 -0.2347790000000 1.0   0.01
Li     1  0.2835490000000 -0.2835490000000  0.2347790000000 1.0   0.01
O      2  0.1818500000000 -0.1818500000000 -0.1172620000000 1.0   0.14
O      2  0.1818500000000 -0.1818500000000  0.1172620000000 1.0   0.14
S      3  0.4657940000000 -0.4657940000000 -0.1427720000000 1.0   0.06
S      3  0.4657940000000 -0.4657940000000  0.1427720000000 1.0   0.06
Fe     4  0.2981720000000 -0.2981720000000  0.0000000000000 1.0   3.59
END
