TITL LFSO-Li3Fe3S4O2-200929-103045-b340f3 -0.0314 220.746683 -5.27864113E+003 -0.782641E-02 0.489830E-01 12 (P2) n - 1
REM
REM Run started: Tue, 29 Sep 2020 15:38:36 +0100 in /lustre/scratch/uccabz1/launch_tmp/launcher_2020-09-29-09-30-44-205302
REM CASTEP 20.1 from code version af48c487+ pr-geom-scf-spinfix Tue Jun 2 15:39:59 2020 +0100
REM Functional Perdew Burke Ernzerhof Relativity Koelling-Harmon Dispersion off
REM Cut-off 340.0000 eV Grid scale 1.7500 Gmax 16.5316 1/A FBSC none
REM MP grid 5 3 2 Offset 0.000 0.000 0.000 No. kpts 8 Spacing 0.07
REM Total runtime: 19688.4 s
REM Overall efficiency: 97.2727 %
REM
REM
REM
REM compiler GCC version 4.9.2
REM options -cpp -iprefix /lustre/shared/ucl/apps/gcc/4.9.2/bin/../lib/gcc/x86_64-unknown-linux-gnu/4.9.2/ -mtune=corei7 -march=x86-64 -g -Og
REM COMMAND_LINE
REM seed 477981392 -1386981528 1661105353 -2107443936 182642310 -1971279476 -114025110 497340097 -1503983230 643135373 13680563 121115158
REM
REM S 3|1.8|5|6|7|30:31:32(qc=5)
REM O 2|1.5|12|13|15|20:21(qc=5)
REM Li 1|1.3|8|9|10|10U:20(qc=5)
REM Fe 3|2.2|2.0|1.0|8|9|10|40:41:32(qc=5)
REM 
CELL 1.54180    3.20106    6.30387   11.10461   90.00000   90.00000   80.10367
LATT -1
SFAC Li O  S  Fe 
Li     1 -0.3714210000000  0.1967570000000 -0.2077170000000 1.0  -0.00
Li     1  0.3714210000000 -0.1967570000000 -0.2077170000000 1.0  -0.00
Li     1 -0.5000000000000 -0.5000000000000 -0.4575300000000 1.0   0.00
O      2 -0.0573010000000 -0.3169180000000  0.2824840000000 1.0  -0.00
O      2  0.0573010000000  0.3169180000000  0.2824840000000 1.0  -0.00
S      3  0.4142810000000 -0.2517410000000  0.0029630000000 1.0   0.00
S      3 -0.4142810000000  0.2517410000000  0.0029630000000 1.0   0.00
S      3 -0.0860940000000 -0.1588710000000 -0.3620450000000 1.0   0.00
S      3  0.0860940000000  0.1588710000000 -0.3620450000000 1.0   0.00
Fe     4  0.0600020000000  0.3265480000000  0.1238360000000 1.0  -0.01
Fe     4 -0.0600020000000 -0.3265480000000  0.1238360000000 1.0  -0.01
Fe     4  0.5000000000000  0.5000000000000  0.2775590000000 1.0  -0.00
END
