TITL LFSO-Li2Fe2S2O-200913-115513-197c95 0.0856 341.432229 -9.51537170E+003 20.0578 20.3939 21 (Imm2) n - 1
REM
REM Run started: Sun, 13 Sep 2020 22:29:33 +0100 in /lustre/scratch/uccabz1/launch_tmp/launcher_2020-09-13-10-55-10-478364
REM CASTEP 20.1 from code version af48c487+ pr-geom-scf-spinfix Tue Jun 2 15:39:59 2020 +0100
REM Functional Perdew Burke Ernzerhof Relativity Koelling-Harmon Dispersion off
REM Cut-off 340.0000 eV Grid scale 1.7500 Gmax 16.5316 1/A FBSC none
REM MP grid 3 3 3 Offset 0.000 0.000 0.000 No. kpts 8 Spacing 0.07
REM Total runtime: 38283.3 s
REM Overall efficiency: 98 %
REM
REM
REM
REM compiler GCC version 4.9.2
REM options -cpp -iprefix /lustre/shared/ucl/apps/gcc/4.9.2/bin/../lib/gcc/x86_64-unknown-linux-gnu/4.9.2/ -mtune=corei7 -march=x86-64 -g -Og
REM COMMAND_LINE
REM seed -1111188338 -846046357 -333382422 663442379 -903904229 679633296 -852255144 1634047310 1095439088 461564272 -638836170 -527965768
REM
REM S 3|1.8|5|6|7|30:31:32(qc=5)
REM O 2|1.5|12|13|15|20:21(qc=5)
REM Li 1|1.3|8|9|10|10U:20(qc=5)
REM Fe 3|2.2|2.0|1.0|8|9|10|40:41:32(qc=5)
REM 
CELL 1.54180    7.82401    7.82401    7.82401  125.32532   93.93264  110.68305
LATT -1
SFAC Li O  S  Fe 
Li     1 -0.0806410000000  0.3753350000000 -0.2865860000000 1.0  -0.01
Li     1  0.0806410000000 -0.2059440000000  0.4559770000000 1.0  -0.01
Li     1  0.3380790000000 -0.2059440000000 -0.2865860000000 1.0  -0.01
Li     1 -0.3380790000000  0.3753350000000  0.4559770000000 1.0  -0.01
Li     1  0.3342430000000 -0.3481090000000  0.3176490000000 1.0   0.02
Li     1 -0.3342430000000 -0.0165940000000  0.3176490000000 1.0   0.02
O      2 -0.3482480000000  0.2259540000000 -0.4257980000000 1.0   0.25
O      2  0.3482480000000 -0.0775500000000 -0.4257980000000 1.0   0.25
O      2 -0.0000000000000 -0.1196360000000 -0.1196360000000 1.0   0.20
S      3 -0.4163360000000  0.0897630000000  0.0598680000000 1.0   0.16
S      3  0.4163360000000  0.4762040000000  0.5060990000000 1.0   0.16
S      3 -0.0298950000000  0.4762040000000  0.0598680000000 1.0   0.16
S      3  0.0298950000000  0.0897630000000  0.5060990000000 1.0   0.16
S      3  0.3447430000000  0.3339240000000 -0.0108190000000 1.0   0.16
S      3 -0.3447430000000 -0.3555620000000 -0.0108190000000 1.0   0.16
Fe     4  0.0137930000000  0.1557290000000 -0.0945030000000 1.0   2.84
Fe     4 -0.0137930000000 -0.1082960000000  0.1419360000000 1.0   2.84
Fe     4 -0.2502320000000 -0.1082960000000 -0.0945030000000 1.0   2.84
Fe     4  0.2502320000000  0.1557290000000  0.1419360000000 1.0   2.84
Fe     4 -0.3889980000000  0.2260690000000 -0.1629290000000 1.0   3.54
Fe     4  0.3889980000000  0.2260690000000 -0.3849330000000 1.0   3.54
END
