TITL LFSO-Li4FeSO2-200910-083606-09bafc -0.0109 125.095742 -2.84230812E+003 4.00000 4.09407 8 (R3) n - 1
REM
REM Run started: Thu, 10 Sep 2020 09:03:32 +0100 in /lustre/scratch/uccabz1/launch_tmp/launcher_2020-09-10-07-36-05-036374
REM CASTEP 20.1 from code version af48c487+ pr-geom-scf-spinfix Tue Jun 2 15:39:59 2020 +0100
REM Functional Perdew Burke Ernzerhof Relativity Koelling-Harmon Dispersion off
REM Cut-off 340.0000 eV Grid scale 1.7500 Gmax 16.5316 1/A FBSC none
REM MP grid 4 4 4 Offset 0.000 0.000 0.000 No. kpts 12 Spacing 0.07
REM Total runtime: 2054.44 s
REM Overall efficiency: 90.7143 %
REM
REM
REM
REM compiler GCC version 4.9.2
REM options -cpp -iprefix /lustre/shared/ucl/apps/gcc/4.9.2/bin/../lib/gcc/x86_64-unknown-linux-gnu/4.9.2/ -mtune=corei7 -march=x86-64 -g -Og
REM COMMAND_LINE
REM seed 1983995555 -1297668380 -1388653976 235983160 218700312 1136335201 1147081941 -532378764 -298942470 -264093018 1121852461 388586653
REM
REM S 3|1.8|5|6|7|30:31:32(qc=5)
REM O 2|1.5|12|13|15|20:21(qc=5)
REM Li 1|1.3|8|9|10|10U:20(qc=5)
REM Fe 3|2.2|2.0|1.0|8|9|10|40:41:32(qc=5)
REM 
CELL 1.54180    6.08672    6.08672    6.08672   50.86258   50.86258   50.86258
LATT -1
SFAC Li O  S  Fe 
Li     1 -0.3856250000000  0.3321120000000  0.0320080000000 1.0  -0.01
Li     1  0.0320080000000 -0.3856250000000  0.3321120000000 1.0  -0.01
Li     1  0.3321120000000  0.0320080000000 -0.3856250000000 1.0  -0.01
Li     1 -0.1066560000000 -0.1066560000000 -0.1066560000000 1.0  -0.07
O      2  0.2486190000000  0.2486190000000  0.2486190000000 1.0   0.15
O      2  0.0085760000000  0.0085760000000  0.0085760000000 1.0   0.13
S      3 -0.2447350000000 -0.2447350000000 -0.2447350000000 1.0   0.20
Fe     4  0.1295270000000  0.1295270000000  0.1295270000000 1.0   3.62
END
