TITL LFSO-Li2Fe4S4O-200911-201921-821e18 0.0075 420.363847 -1.10078890E+004 -0.145730E-02 0.713731E-02 22 (Pmma) n - 1
REM
REM Run started: Sat, 12 Sep 2020 08:29:32 +0100 in /lustre/scratch/uccabz1/launch_tmp/launcher_2020-09-11-19-19-20-118808
REM CASTEP 20.1 from code version af48c487+ pr-geom-scf-spinfix Tue Jun 2 15:39:59 2020 +0100
REM Functional Perdew Burke Ernzerhof Relativity Koelling-Harmon Dispersion off
REM Cut-off 340.0000 eV Grid scale 1.7500 Gmax 16.5316 1/A FBSC none
REM MP grid 5 2 2 Offset 0.000 0.000 0.000 No. kpts 3 Spacing 0.07
REM Total runtime: 43987.7 s
REM Overall efficiency: 93.8182 %
REM
REM
REM
REM compiler GCC version 4.9.2
REM options -cpp -iprefix /lustre/shared/ucl/apps/gcc/4.9.2/bin/../lib/gcc/x86_64-unknown-linux-gnu/4.9.2/ -mtune=corei7 -march=x86-64 -g -Og
REM COMMAND_LINE
REM seed -1908916869 -1764018579 -466269881 -99358553 -424648260 -724105316 -1540811059 1420529762 179592275 -405886114 -1564192107 1556484140
REM
REM S 3|1.8|5|6|7|30:31:32(qc=5)
REM O 2|1.5|12|13|15|20:21(qc=5)
REM Li 1|1.3|8|9|10|10U:20(qc=5)
REM Fe 3|2.2|2.0|1.0|8|9|10|40:41:32(qc=5)
REM 
CELL 1.54180    3.54119    8.32706   14.25558   90.00000   90.00000   90.00000
LATT -1
SFAC Li O  S  Fe 
Li     1  0.0770040000000  0.3276910000000 -0.4070390000000 1.0
Li     1  0.5770040000000 -0.3276910000000  0.4070390000000 1.0
Li     1  0.5770040000000  0.3276910000000  0.4070390000000 1.0
Li     1  0.0770040000000 -0.3276910000000 -0.4070390000000 1.0
O      2  0.0831410000000 -0.5000000000000 -0.2342700000000 1.0
O      2  0.5831410000000  0.5000000000000  0.2342700000000 1.0
S      3  0.0821190000000  0.2200150000000  0.3139970000000 1.0
S      3 -0.4178810000000 -0.2200150000000 -0.3139970000000 1.0
S      3 -0.4178810000000  0.2200150000000 -0.3139970000000 1.0
S      3  0.0821190000000 -0.2200150000000  0.3139970000000 1.0
S      3 -0.4094790000000  0.1219830000000  0.1224320000000 1.0
S      3  0.0905210000000 -0.1219830000000 -0.1224320000000 1.0
S      3  0.0905210000000  0.1219830000000 -0.1224320000000 1.0
S      3 -0.4094790000000 -0.1219830000000  0.1224320000000 1.0
Fe     4 -0.4220040000000 -0.1207110000000 -0.4541880000000 1.0
Fe     4  0.0779960000000  0.1207110000000  0.4541880000000 1.0
Fe     4  0.0779960000000 -0.1207110000000  0.4541880000000 1.0
Fe     4 -0.4220040000000  0.1207110000000 -0.4541880000000 1.0
Fe     4  0.0822440000000 -0.2918600000000 -0.2325790000000 1.0
Fe     4 -0.4177560000000  0.2918600000000  0.2325790000000 1.0
Fe     4 -0.4177560000000 -0.2918600000000  0.2325790000000 1.0
Fe     4  0.0822440000000  0.2918600000000 -0.2325790000000 1.0
END
