TITL LFSO-Li6FeSO3-200909-222511-67c2df 0.0155 175.823720 -3.68041998E+003 4.06524 4.30678 11 (P-6) n - 1
REM
REM Run started: Wed, 09 Sep 2020 23:25:13 +0100 in /lustre/scratch/uccabz1/launch_tmp/launcher_2020-09-09-21-25-08-755226
REM CASTEP 20.1 from code version af48c487+ pr-geom-scf-spinfix Tue Jun 2 15:39:59 2020 +0100
REM Functional Perdew Burke Ernzerhof Relativity Koelling-Harmon Dispersion off
REM Cut-off 340.0000 eV Grid scale 1.7500 Gmax 16.5316 1/A FBSC none
REM MP grid 3 3 3 Offset 0.000 0.000 0.000 No. kpts 8 Spacing 0.07
REM Total runtime: 3645.69 s
REM Overall efficiency: 91.1111 %
REM
REM
REM
REM compiler GCC version 4.9.2
REM options -cpp -iprefix /lustre/shared/ucl/apps/gcc/4.9.2/bin/../lib/gcc/x86_64-unknown-linux-gnu/4.9.2/ -mtune=corei7 -march=x86-64 -g -Og
REM COMMAND_LINE
REM seed 1447613718 1652194122 -1955906 1314585322 -876109391 -1404819108 1303313974 360036168 301555214 -408720639 -1505366881 -183810734
REM
REM S 3|1.8|5|6|7|30:31:32(qc=5)
REM O 2|1.5|12|13|15|20:21(qc=5)
REM Li 1|1.3|8|9|10|10U:20(qc=5)
REM Fe 3|2.2|2.0|1.0|8|9|10|40:41:32(qc=5)
REM 
CELL 1.54180    6.07613    6.07613    5.49911   90.00000   90.00000  120.00000
LATT -1
SFAC Li O  S  Fe 
Li     1 -0.1361020000000  0.1590770000000 -0.0525370000000 1.0  -0.01
Li     1 -0.1590770000000 -0.2951800000000 -0.0525370000000 1.0  -0.01
Li     1  0.2951800000000  0.1361020000000 -0.0525370000000 1.0  -0.01
Li     1 -0.1362340000000  0.1587130000000  0.3517340000000 1.0  -0.01
Li     1 -0.1587130000000 -0.2949470000000  0.3517340000000 1.0  -0.01
Li     1  0.2949470000000  0.1362340000000  0.3517340000000 1.0  -0.01
O      2  0.1651850000000  0.3079340000000  0.1492470000000 1.0   0.17
O      2 -0.3079340000000 -0.1427490000000  0.1492470000000 1.0   0.17
O      2  0.1427490000000 -0.1651850000000  0.1492470000000 1.0   0.17
S      3 -0.3333330000000  0.3333330000000  0.6479630000000 1.0  -0.01
Fe     4  0.3333330000000 -0.3333330000000  0.1544740000000 1.0   3.62
END
