TITL LFSO-Li4Fe2SO4-200910-145353-9c573c 0.0691 140.185799 -4.58218420E+003 9.47185 9.49482 11 (R3m) n - 1
REM
REM Run started: Thu, 10 Sep 2020 15:56:19 +0100 in /lustre/scratch/uccabz1/launch_tmp/launcher_2020-09-10-13-53-52-105592
REM CASTEP 20.1 from code version af48c487+ pr-geom-scf-spinfix Tue Jun 2 15:39:59 2020 +0100
REM Functional Perdew Burke Ernzerhof Relativity Koelling-Harmon Dispersion off
REM Cut-off 340.0000 eV Grid scale 1.7500 Gmax 16.5316 1/A FBSC none
REM MP grid 4 4 4 Offset 0.000 0.000 0.000 No. kpts 12 Spacing 0.07
REM Total runtime: 3819.54 s
REM Overall efficiency: 93.4286 %
REM
REM
REM
REM compiler GCC version 4.9.2
REM options -cpp -iprefix /lustre/shared/ucl/apps/gcc/4.9.2/bin/../lib/gcc/x86_64-unknown-linux-gnu/4.9.2/ -mtune=corei7 -march=x86-64 -g -Og
REM COMMAND_LINE
REM seed 1901999594 987281046 -680685742 1054088830 1111685576 -1600134645 -1901499042 -1271271390 559558378 -1714073741 1480053421 -357429074
REM
REM S 3|1.8|5|6|7|30:31:32(qc=5)
REM O 2|1.5|12|13|15|20:21(qc=5)
REM Li 1|1.3|8|9|10|10U:20(qc=5)
REM Fe 3|2.2|2.0|1.0|8|9|10|40:41:32(qc=5)
REM 
CELL 1.54180    5.84857    5.84857    5.84857   59.60371   59.60371   59.60371
LATT -1
SFAC Li O  S  Fe 
Li     1 -0.5999050000000  0.3997180000000 -0.1641330000000 1.0  -0.03
Li     1 -0.1641330000000 -0.5999050000000  0.3997180000000 1.0  -0.03
Li     1  0.3997180000000 -0.1641330000000 -0.5999050000000 1.0  -0.03
Li     1  0.0188630000000  0.0188630000000  0.0188630000000 1.0  -0.02
O      2  0.0910350000000  0.0914720000000 -0.4083240000000 1.0   0.37
O      2 -0.4083240000000  0.0910350000000  0.0914720000000 1.0   0.37
O      2  0.0914720000000 -0.4083240000000  0.0910350000000 1.0   0.37
O      2  0.4619630000000  0.4619630000000  0.4619630000000 1.0   0.36
S      3 -0.2937780000000 -0.2937780000000 -0.2937780000000 1.0   0.43
Fe     4  0.3347850000000  0.3347850000000  0.3347850000000 1.0   3.95
Fe     4 -0.1437250000000 -0.1437250000000 -0.1437250000000 1.0   3.74
END
