TITL LFSO-LiFe3S4O-200909-071108-8027dd -0.0329 128.216464 -4.44395306E+003 -0.981878E-02 0.599836E-01 9 (Pm) n - 1
REM
REM Run started: Wed, 09 Sep 2020 10:39:35 +0100 in /lustre/scratch/uccabz1/launch_tmp/launcher_2020-09-09-06-11-07-115236
REM CASTEP 20.1 from code version af48c487+ pr-geom-scf-spinfix Tue Jun 2 15:39:59 2020 +0100
REM Functional Perdew Burke Ernzerhof Relativity Koelling-Harmon Dispersion off
REM Cut-off 340.0000 eV Grid scale 1.7500 Gmax 16.5316 1/A FBSC none
REM MP grid 5 3 3 Offset 0.000 0.000 0.000 No. kpts 16 Spacing 0.07
REM Total runtime: 13711.3 s
REM Overall efficiency: 95.4545 %
REM
REM
REM
REM compiler GCC version 4.9.2
REM options -cpp -iprefix /lustre/shared/ucl/apps/gcc/4.9.2/bin/../lib/gcc/x86_64-unknown-linux-gnu/4.9.2/ -mtune=corei7 -march=x86-64 -g -Og
REM COMMAND_LINE
REM seed 170101881 -1045231583 -1638485447 1476190147 -794705024 -1995918268 -981183652 -358352410 141792555 1536837699 -1936426583 663514543
REM
REM S 3|1.8|5|6|7|30:31:32(qc=5)
REM O 2|1.5|12|13|15|20:21(qc=5)
REM Li 1|1.3|8|9|10|10U:20(qc=5)
REM Fe 3|2.2|2.0|1.0|8|9|10|40:41:32(qc=5)
REM 
CELL 1.54180    3.30890    5.70860    7.10214   90.00000   90.00000  107.10940
LATT -1
SFAC Li O  S  Fe 
Li     1  0.3089500000000  0.4503730000000  0.0000000000000 1.0  -0.00
O      2  0.1842870000000  0.0401700000000  0.0000000000000 1.0   0.00
S      3 -0.1844630000000  0.3040440000000 -0.2910090000000 1.0  -0.00
S      3 -0.1844630000000  0.3040440000000  0.2910090000000 1.0  -0.00
S      3 -0.4616890000000 -0.2516330000000 -0.2876140000000 1.0   0.00
S      3 -0.4616890000000 -0.2516330000000  0.2876140000000 1.0   0.00
Fe     4  0.1711770000000  0.0151140000000 -0.2405630000000 1.0   0.01
Fe     4  0.1711770000000  0.0151140000000  0.2405630000000 1.0   0.01
Fe     4  0.3762850000000  0.4277850000000  0.5000000000000 1.0  -0.03
END
