TITL LFSO-Li6FeSO3-200909-221317-649fc2 -0.0030 273.043502 -7.36144679E+003 6.67721 6.95212 22 (P21/c) n - 1
REM
REM Run started: Thu, 10 Sep 2020 02:07:39 +0100 in /lustre/scratch/uccabz1/launch_tmp/launcher_2020-09-09-21-13-14-788442
REM CASTEP 20.1 from code version af48c487+ pr-geom-scf-spinfix Tue Jun 2 15:39:59 2020 +0100
REM Functional Perdew Burke Ernzerhof Relativity Koelling-Harmon Dispersion off
REM Cut-off 340.0000 eV Grid scale 1.7500 Gmax 16.5316 1/A FBSC none
REM MP grid 4 3 2 Offset 0.000 0.000 0.000 No. kpts 6 Spacing 0.07
REM Total runtime: 15463.5 s
REM Overall efficiency: 97.25 %
REM
REM
REM
REM compiler GCC version 4.9.2
REM options -cpp -iprefix /lustre/shared/ucl/apps/gcc/4.9.2/bin/../lib/gcc/x86_64-unknown-linux-gnu/4.9.2/ -mtune=corei7 -march=x86-64 -g -Og
REM COMMAND_LINE
REM seed -1604812965 -1542771534 1318017406 1377625989 1674587806 -650610108 1417634909 564239689 492583776 -1250846401 1686696434 -800667815
REM
REM S 3|1.8|5|6|7|30:31:32(qc=5)
REM O 2|1.5|12|13|15|20:21(qc=5)
REM Li 1|1.3|8|9|10|10U:20(qc=5)
REM Fe 3|2.2|2.0|1.0|8|9|10|40:41:32(qc=5)
REM 
CELL 1.54180    3.69986    5.37051   13.86590   82.31675   90.00000   90.00000
LATT -1
SFAC Li O  S  Fe 
Li     1 -0.0224850000000  0.2912820000000  0.0828370000000 1.0  -0.03
Li     1 -0.5224850000000 -0.2912820000000 -0.5828370000000 1.0  -0.03
Li     1  0.0224850000000 -0.2912820000000 -0.0828370000000 1.0  -0.03
Li     1  0.5224850000000  0.2912820000000  0.5828370000000 1.0  -0.03
Li     1  0.1263730000000 -0.4451570000000 -0.3174240000000 1.0  -0.00
Li     1 -0.3736270000000  0.4451570000000 -0.1825760000000 1.0  -0.00
Li     1 -0.1263730000000  0.4451570000000  0.3174240000000 1.0  -0.00
Li     1  0.3736270000000 -0.4451570000000  0.1825760000000 1.0  -0.00
Li     1 -0.4798980000000 -0.1060350000000 -0.2214230000000 1.0  -0.04
Li     1  0.0201020000000  0.1060350000000 -0.2785770000000 1.0  -0.04
Li     1  0.4798980000000  0.1060350000000  0.2214230000000 1.0  -0.04
Li     1 -0.0201020000000 -0.1060350000000  0.2785770000000 1.0  -0.04
O      2  0.0005120000000 -0.2528110000000 -0.2199630000000 1.0   0.00
O      2 -0.4994880000000  0.2528110000000 -0.2800370000000 1.0   0.00
O      2 -0.0005120000000  0.2528110000000  0.2199630000000 1.0   0.00
O      2  0.4994880000000 -0.2528110000000  0.2800370000000 1.0   0.00
O      2  0.0000000000000  0.0000000000000 -0.0000000000000 1.0   0.25
O      2  0.5000000000000  0.0000000000000 -0.5000000000000 1.0   0.25
S      3  0.5000000000000  0.5000000000000 -0.0000000000000 1.0   0.07
S      3  0.0000000000000 -0.5000000000000  0.5000000000000 1.0   0.07
Fe     4  0.5000000000000  0.0000000000000 -0.0000000000000 1.0   3.15
Fe     4  0.0000000000000  0.0000000000000 -0.5000000000000 1.0   3.15
END
