TITL LFSO-Li6FeS2O2-200920-201843-a74c76 -0.0719 283.589884 -3.54577920E+003 4.00003 4.12675 11 (Pmm2) n - 1
REM
REM Run started: Mon, 21 Sep 2020 01:10:27 +0100 in /lustre/scratch/uccabz1/launch_tmp/launcher_2020-09-20-19-18-42-096763
REM CASTEP 20.1 from code version af48c487+ pr-geom-scf-spinfix Tue Jun 2 15:39:59 2020 +0100
REM Functional Perdew Burke Ernzerhof Relativity Koelling-Harmon Dispersion off
REM Cut-off 340.0000 eV Grid scale 1.7500 Gmax 16.5316 1/A FBSC none
REM MP grid 4 2 3 Offset 0.000 0.000 0.000 No. kpts 6 Spacing 0.07
REM Total runtime: 19073.6 s
REM Overall efficiency: 92.9167 %
REM
REM
REM
REM compiler GCC version 4.9.2
REM options -cpp -iprefix /lustre/shared/ucl/apps/gcc/4.9.2/bin/../lib/gcc/x86_64-unknown-linux-gnu/4.9.2/ -mtune=corei7 -march=x86-64 -g -Og
REM COMMAND_LINE
REM seed -1261884612 335448562 1783450003 1825871042 -115590241 329221105 -940518465 1775322377 476896675 -1110689975 1191262439 831415353
REM
REM S 3|1.8|5|6|7|30:31:32(qc=5)
REM O 2|1.5|12|13|15|20:21(qc=5)
REM Li 1|1.3|8|9|10|10U:20(qc=5)
REM Fe 3|2.2|2.0|1.0|8|9|10|40:41:32(qc=5)
REM 
CELL 1.54180    3.85272   12.50581    5.88589   90.00000   90.10677   90.00000
LATT -1
SFAC Li O  S  Fe 
Li     1  0.2779150000000 -0.3279770000000  0.2947500000000 1.0  -0.04
Li     1  0.2779150000000  0.3279770000000  0.2947500000000 1.0  -0.04
Li     1 -0.2202820000000 -0.3287040000000 -0.4193910000000 1.0  -0.02
Li     1 -0.2202820000000  0.3287040000000 -0.4193910000000 1.0  -0.02
Li     1 -0.2194920000000 -0.2644060000000 -0.0139720000000 1.0   0.01
Li     1 -0.2194920000000  0.2644060000000 -0.0139720000000 1.0   0.01
O      2 -0.2233540000000  0.3611080000000  0.2615930000000 1.0   0.18
O      2 -0.2233540000000 -0.3611080000000  0.2615930000000 1.0   0.18
S      3 -0.7202900000000 -0.3029750000000 -0.2131930000000 1.0   0.05
S      3 -0.7202900000000  0.3029750000000 -0.2131930000000 1.0   0.05
Fe     4 -0.2291340000000 -0.5000000000000  0.1549110000000 1.0   3.62
END
