TITL LFSO-Li2Fe2SO2-200913-001741-5774b8 0.9952 322.454713 -9.91697772E+003 -19.6125 20.1962 21 (Cm) n - 1
REM
REM Run started: Tue, 15 Sep 2020 02:16:17 +0100 in /lustre/scratch/uccabz1/launch_tmp/launcher_2020-09-14-12-46-03-864327
REM CASTEP 20.1 from code version af48c487+ pr-geom-scf-spinfix Tue Jun 2 15:39:59 2020 +0100
REM Functional Perdew Burke Ernzerhof Relativity Koelling-Harmon Dispersion off
REM Cut-off 340.0000 eV Grid scale 1.7500 Gmax 16.5316 1/A FBSC none
REM MP grid 5 2 2 Offset 0.000 0.000 0.000 No. kpts 8 Spacing 0.07
REM Total runtime: 83783.5 s
REM Overall efficiency: 98.3333 %
REM
REM
REM
REM compiler GCC version 4.9.2
REM options -cpp -iprefix /lustre/shared/ucl/apps/gcc/4.9.2/bin/../lib/gcc/x86_64-unknown-linux-gnu/4.9.2/ -mtune=corei7 -march=x86-64 -g -Og
REM COMMAND_LINE
REM seed 2122156877 1578527640 -705932337 -1576534308 -189144815 -801089759 955963304 1640534063 -1927111416 -1549289539 620654273 -1464738076
REM
REM S 3|1.8|5|6|7|30:31:32(qc=5)
REM O 2|1.5|12|13|15|20:21(qc=5)
REM Li 1|1.3|8|9|10|10U:20(qc=5)
REM Fe 3|2.2|2.0|1.0|8|9|10|40:41:32(qc=5)
REM 
CELL 1.54180    2.99375   10.73327   10.73327  110.56959   91.71609   91.71609
LATT -1
SFAC Li O  S  Fe 
Li     1  0.3441910000000 -0.1588770000000  0.4384470000000 1.0   0.04
Li     1  0.3441910000000  0.4384470000000 -0.1588770000000 1.0   0.04
Li     1 -0.0833150000000  0.0246780000000 -0.2228610000000 1.0   0.03
Li     1 -0.0833150000000 -0.2228610000000  0.0246780000000 1.0   0.03
Li     1 -0.2186190000000  0.2139120000000  0.3943740000000 1.0  -0.01
Li     1 -0.2186190000000  0.3943740000000  0.2139120000000 1.0  -0.01
O      2 -0.1337830000000 -0.2539990000000 -0.5104550000000 1.0  -0.24
O      2 -0.1337830000000 -0.5104550000000 -0.2539990000000 1.0  -0.24
O      2 -0.1981490000000  0.1274760000000 -0.3291360000000 1.0  -0.16
O      2 -0.1981490000000 -0.3291360000000  0.1274760000000 1.0  -0.16
O      2  0.3058190000000 -0.4995490000000  0.2742690000000 1.0  -0.39
O      2  0.3058190000000  0.2742690000000 -0.4995490000000 1.0  -0.39
S      3 -0.2307740000000 -0.0085150000000  0.3746950000000 1.0   0.01
S      3 -0.2307740000000  0.3746950000000 -0.0085150000000 1.0   0.01
S      3 -0.5872050000000 -0.1541720000000 -0.1541720000000 1.0  -0.01
Fe     4  0.4033370000000 -0.2535560000000 -0.3823650000000 1.0  -3.22
Fe     4  0.4033370000000 -0.3823650000000 -0.2535560000000 1.0  -3.22
Fe     4  0.2847960000000  0.5415440000000  0.0902980000000 1.0  -2.33
Fe     4  0.2847960000000  0.0902980000000  0.5415440000000 1.0  -2.33
Fe     4 -0.1653630000000 -0.3670500000000  0.2973700000000 1.0  -3.53
Fe     4 -0.1653630000000  0.2973700000000 -0.3670500000000 1.0  -3.53
END
