TITL LFSO-LiFeSO-200921-185727-4b3e0a 0.0126 178.608685 -5.41344774E+003 -1.57692 1.79282 12 (Amm2) n - 1
REM
REM Run started: Tue, 22 Sep 2020 02:13:20 +0100 in /lustre/scratch/uccabz1/launch_tmp/launcher_2020-09-21-17-57-25-232762
REM CASTEP 20.1 from code version af48c487+ pr-geom-scf-spinfix Tue Jun 2 15:39:59 2020 +0100
REM Functional Perdew Burke Ernzerhof Relativity Koelling-Harmon Dispersion off
REM Cut-off 340.0000 eV Grid scale 1.7500 Gmax 16.5316 1/A FBSC none
REM MP grid 5 2 2 Offset 0.000 0.000 0.000 No. kpts 5 Spacing 0.07
REM Total runtime: 26333.5 s
REM Overall efficiency: 88 %
REM
REM
REM
REM compiler GCC version 4.9.2
REM options -cpp -iprefix /lustre/shared/ucl/apps/gcc/4.9.2/bin/../lib/gcc/x86_64-unknown-linux-gnu/4.9.2/ -mtune=corei7 -march=x86-64 -g -Og
REM COMMAND_LINE
REM seed -341835737 915667183 1476027164 -476821973 -1433931571 175092638 1718134118 1732665505 -206518886 -1989210758 -1962210997 -933865835
REM
REM S 3|1.8|5|6|7|30:31:32(qc=5)
REM O 2|1.5|12|13|15|20:21(qc=5)
REM Li 1|1.3|8|9|10|10U:20(qc=5)
REM Fe 3|2.2|2.0|1.0|8|9|10|40:41:32(qc=5)
REM 
CELL 1.54180    3.11495    7.45962    7.85982   90.00000   90.00000  102.05130
LATT -1
SFAC Li O  S  Fe 
Li     1 -0.2443290000000 -0.4886580000000 -0.3594530000000 1.0  -0.00
Li     1 -0.2443290000000 -0.4886580000000  0.3594530000000 1.0  -0.00
Li     1  0.1683940000000 -0.6632130000000  0.0000000000000 1.0  -0.01
O      2 -0.3485310000000  0.3029380000000  0.1765320000000 1.0  -0.03
O      2 -0.3485310000000  0.3029380000000 -0.1765320000000 1.0  -0.03
O      2  0.2683460000000  0.5366920000000 -0.5000000000000 1.0  -0.00
S      3 -0.0298850000000 -0.0597710000000 -0.3449600000000 1.0   0.02
S      3 -0.0298850000000 -0.0597710000000  0.3449600000000 1.0   0.02
S      3 -0.1506050000000 -0.3012100000000  0.0000000000000 1.0  -0.00
Fe     4  0.5388840000000  0.0777670000000 -0.2205680000000 1.0  -0.32
Fe     4  0.5388840000000  0.0777670000000  0.2205680000000 1.0  -0.32
Fe     4 -0.5537090000000 -0.1074180000000  0.0000000000000 1.0  -0.87
END
