TITL LFSO-LiFe3S3O2-200909-125219-2ddecc -0.0125 266.305357 -9.15566398E+003 -0.271817E-01 0.949371E-01 18 (C2) n - 1
REM
REM Run started: Thu, 10 Sep 2020 20:04:35 +0100 in /lustre/scratch/uccabz1/launch_tmp/launcher_2020-09-10-11-21-54-468451
REM CASTEP 20.1 from code version af48c487+ pr-geom-scf-spinfix Tue Jun 2 15:39:59 2020 +0100
REM Functional Perdew Burke Ernzerhof Relativity Koelling-Harmon Dispersion off
REM Cut-off 340.0000 eV Grid scale 1.7500 Gmax 16.5316 1/A FBSC none
REM MP grid 6 3 1 Offset 0.000 0.000 0.000 No. kpts 9 Spacing 0.07
REM Total runtime: 152305 s
REM Overall efficiency: 98.1818 %
REM
REM
REM
REM compiler GCC version 4.9.2
REM options -cpp -iprefix /lustre/shared/ucl/apps/gcc/4.9.2/bin/../lib/gcc/x86_64-unknown-linux-gnu/4.9.2/ -mtune=corei7 -march=x86-64 -g -Og
REM COMMAND_LINE
REM seed -2053234744 -961728959 -1080033132 -90317913 -2048646354 -1619333714 -1104058406 -1733827663 -1553692893 -1873175508 -1265445347 2101200251
REM
REM S 3|1.8|5|6|7|30:31:32(qc=5)
REM O 2|1.5|12|13|15|20:21(qc=5)
REM Li 1|1.3|8|9|10|10U:20(qc=5)
REM Fe 3|2.2|2.0|1.0|8|9|10|40:41:32(qc=5)
REM 
CELL 1.54180    2.89296    6.14968   15.74922   78.27001   90.00000  103.60412
LATT -1
SFAC Li O  S  Fe 
Li     1 -0.4127760000000 -0.3204580000000  0.4571620000000 1.0  -0.00
Li     1 -0.0923200000000  0.3204560000000 -0.4571620000000 1.0  -0.00
O      2  0.0501060000000 -0.3568230000000 -0.4472380000000 1.0  -0.00
O      2 -0.5930720000000  0.3568210000000  0.4472380000000 1.0  -0.00
O      2  0.1036500000000 -0.2363490000000  0.0821660000000 1.0  -0.00
O      2  0.3399980000000  0.2363470000000 -0.0821660000000 1.0  -0.00
S      3  0.4684200000000  0.4898300000000 -0.2621100000000 1.0   0.00
S      3 -0.0214110000000 -0.4898320000000  0.2621100000000 1.0   0.00
S      3  0.0703880000000 -0.3031640000000 -0.0929070000000 1.0   0.00
S      3  0.3735510000000  0.3031620000000  0.0929070000000 1.0   0.00
S      3 -0.7832250000000 -0.0164370000000 -0.3507400000000 1.0   0.00
S      3 -0.7667890000000  0.0164350000000  0.3507400000000 1.0   0.00
Fe     4 -0.0715650000000  0.4106300000000 -0.1628200000000 1.0  -0.02
Fe     4  0.5178040000000 -0.4106320000000  0.1628200000000 1.0  -0.02
Fe     4  0.5545110000000 -0.3350690000000  0.0134140000000 1.0   0.01
Fe     4 -0.1104210000000  0.3350670000000 -0.0134140000000 1.0   0.01
Fe     4 -0.4070240000000 -0.2640050000000 -0.3796420000000 1.0  -0.01
Fe     4 -0.1430200000000  0.2640030000000  0.3796420000000 1.0  -0.01
END
