TITL LFSO-Li4FeSO2-200910-071922-2519fc -0.0267 114.105393 -2.84331651E+003 3.84348 3.98078 8 (P2/m) n - 1
REM
REM Run started: Thu, 10 Sep 2020 08:08:51 +0100 in /lustre/scratch/uccabz1/launch_tmp/launcher_2020-09-10-06-19-20-489980
REM CASTEP 20.1 from code version af48c487+ pr-geom-scf-spinfix Tue Jun 2 15:39:59 2020 +0100
REM Functional Perdew Burke Ernzerhof Relativity Koelling-Harmon Dispersion off
REM Cut-off 340.0000 eV Grid scale 1.7500 Gmax 16.5316 1/A FBSC none
REM MP grid 6 4 2 Offset 0.000 0.000 0.000 No. kpts 12 Spacing 0.07
REM Total runtime: 3070.82 s
REM Overall efficiency: 92.4286 %
REM
REM
REM
REM compiler GCC version 4.9.2
REM options -cpp -iprefix /lustre/shared/ucl/apps/gcc/4.9.2/bin/../lib/gcc/x86_64-unknown-linux-gnu/4.9.2/ -mtune=corei7 -march=x86-64 -g -Og
REM COMMAND_LINE
REM seed 1183405561 45849335 -1334485013 -866477272 -1689179476 -162291339 1965944055 1502701974 340277636 6107088 -1234351538 1002060345
REM
REM S 3|1.8|5|6|7|30:31:32(qc=5)
REM O 2|1.5|12|13|15|20:21(qc=5)
REM Li 1|1.3|8|9|10|10U:20(qc=5)
REM Fe 3|2.2|2.0|1.0|8|9|10|40:41:32(qc=5)
REM 
CELL 1.54180    3.79763    5.29658    8.32856   90.00000   90.00000  137.06827
LATT -1
SFAC Li O  S  Fe 
Li     1  0.5810440000000 -0.1059450000000  0.1956720000000 1.0  -0.03
Li     1  0.5810440000000 -0.1059450000000 -0.1956720000000 1.0  -0.03
Li     1 -0.4157000000000  0.4083450000000 -0.1751130000000 1.0  -0.01
Li     1 -0.4157000000000  0.4083450000000  0.1751130000000 1.0  -0.01
O      2  0.0809280000000 -0.0998550000000 -0.2854930000000 1.0   0.20
O      2  0.0809280000000 -0.0998550000000  0.2854930000000 1.0   0.20
S      3  0.0752300000000  0.3976030000000  0.0000000000000 1.0  -0.02
Fe     4  0.0831220000000 -0.0994220000000  0.5000000000000 1.0   3.53
END
