TITL LFSO-Li4Fe3S2O3-200928-070526-ef3eb2 -0.0003 195.796984 -5.31213047E+003 5.94830 8.33238 12 (Pm) n - 1
REM
REM Run started: Mon, 28 Sep 2020 15:49:07 +0100 in /scratch/scratch/uccabz1/launch_tmp/launcher_2020-09-28-06-05-23-179381
REM CASTEP 19.11| from code version Version unavailable
REM Functional Perdew Burke Ernzerhof Relativity Koelling-Harmon Dispersion off
REM Cut-off 340.0000 eV Grid scale 1.7500 Gmax 16.5316 1/A FBSC none
REM MP grid 8 2 3 Offset 0.000 0.000 0.000 No. kpts 12 Spacing 0.07
REM Total runtime: 31495.5 s
REM Overall efficiency: 82 %
REM
REM
REM
REM compiler GCC version 4.9.2
REM options -cpp -iprefix /scratch/UCL/applications/gcc/4.9.2/bin/../lib/gcc/x86_64-unknown-linux-gnu/4.9.2/ -mtune=corei7 -march=x86-64 -g -O2
REM COMMAND_LINE
REM seed 825676020 736220672 1432089579 -1198009790 1397329604 -1542206185 691343643 812943228 782327252 -1479809474 -1393505250 482080504
REM
REM S 3|1.8|5|6|7|30:31:32(qc=5)
REM O 2|1.5|12|13|15|20:21(qc=5)
REM Li 1|1.3|8|9|10|10U:20(qc=5)
REM Fe 3|2.2|2.0|1.0|8|9|10|40:41:32(qc=5)
REM 
CELL 1.54180    3.03414    9.16291   10.55313   90.00000  138.13687   90.00000
LATT -1
SFAC Li O  S  Fe 
Li     1 -0.1876460000000  0.1422750000000 -0.1713340000000 1.0   0.00
Li     1 -0.1876460000000 -0.1422750000000 -0.1713340000000 1.0   0.00
Li     1 -0.3830640000000  0.1196510000000 -0.4457300000000 1.0   0.01
Li     1 -0.3830640000000 -0.1196510000000 -0.4457300000000 1.0   0.01
O      2 -0.4941680000000  0.2627940000000 -0.0942250000000 1.0   0.29
O      2 -0.4941680000000 -0.2627940000000 -0.0942250000000 1.0   0.29
O      2  0.3203080000000  0.0000000000000 -0.3663370000000 1.0   0.01
S      3  0.1313740000000 -0.3367380000000  0.3464970000000 1.0   0.04
S      3  0.1313740000000  0.3367380000000  0.3464970000000 1.0   0.04
Fe     4  0.3144290000000  0.3630690000000  0.0263110000000 1.0   3.22
Fe     4  0.3144290000000 -0.3630690000000  0.0263110000000 1.0   3.22
Fe     4  0.4403700000000  0.5000000000000  0.2728930000000 1.0  -1.18
END
