TITL LFSO-Li6FeS2O2-200920-193239-56144e 0.2997 173.423714 -3.54595889E+003 3.99702 4.11351 11 (P2) n - 1
REM
REM Run started: Sun, 20 Sep 2020 22:01:43 +0100 in /lustre/scratch/uccabz1/launch_tmp/launcher_2020-09-20-18-32-37-719994
REM CASTEP 20.1 from code version af48c487+ pr-geom-scf-spinfix Tue Jun 2 15:39:59 2020 +0100
REM Functional Perdew Burke Ernzerhof Relativity Koelling-Harmon Dispersion off
REM Cut-off 340.0000 eV Grid scale 1.7500 Gmax 16.5316 1/A FBSC none
REM MP grid 4 3 3 Offset 0.000 0.000 0.000 No. kpts 10 Spacing 0.07
REM Total runtime: 9706.8 s
REM Overall efficiency: 87.25 %
REM
REM
REM
REM compiler GCC version 4.9.2
REM options -cpp -iprefix /lustre/shared/ucl/apps/gcc/4.9.2/bin/../lib/gcc/x86_64-unknown-linux-gnu/4.9.2/ -mtune=corei7 -march=x86-64 -g -Og
REM COMMAND_LINE
REM seed -1233676047 1434276724 -762774134 1189484280 2114538829 1314943555 -1780809003 -938652269 1452561047 -977701614 -1085787285 -1294552186
REM
REM S 3|1.8|5|6|7|30:31:32(qc=5)
REM O 2|1.5|12|13|15|20:21(qc=5)
REM Li 1|1.3|8|9|10|10U:20(qc=5)
REM Fe 3|2.2|2.0|1.0|8|9|10|40:41:32(qc=5)
REM 
CELL 1.54180    3.87253    6.87992    6.55818   97.00360   90.00000   90.00000
LATT -1
SFAC Li O  S  Fe 
Li     1 -0.3424950000000  0.3148990000000  0.0719060000000 1.0   0.00
Li     1 -0.3424950000000 -0.3148990000000 -0.0719060000000 1.0   0.00
Li     1 -0.5080410000000 -0.0417720000000  0.2694400000000 1.0  -0.05
Li     1 -0.5080410000000  0.0417720000000 -0.2694400000000 1.0  -0.05
Li     1  0.0137520000000  0.3495800000000 -0.3517210000000 1.0   0.04
Li     1  0.0137520000000 -0.3495800000000  0.3517210000000 1.0   0.04
O      2 -0.1379000000000 -0.1903380000000  0.1701210000000 1.0   0.17
O      2 -0.1379000000000  0.1903380000000 -0.1701210000000 1.0   0.17
S      3  0.1771530000000 -0.2638900000000 -0.2846830000000 1.0   0.10
S      3  0.1771530000000  0.2638900000000  0.2846830000000 1.0   0.10
Fe     4  0.0106200000000  0.0000000000000  0.0000000000000 1.0   3.48
END
