TITL LFSO-Li4Fe2S4O-200910-181858-443e5f 0.0544 1096.019100 -8.35895990E+003 -11.9342 12.3701 22 (Pmm2) n - 1
REM
REM Run started: Fri, 11 Sep 2020 06:23:39 +0100 in /lustre/scratch/uccabz1/launch_tmp/launcher_2020-09-10-17-18-56-530082
REM CASTEP 20.1 from code version af48c487+ pr-geom-scf-spinfix Tue Jun 2 15:39:59 2020 +0100
REM Functional Perdew Burke Ernzerhof Relativity Koelling-Harmon Dispersion off
REM Cut-off 340.0000 eV Grid scale 1.7500 Gmax 16.5316 1/A FBSC none
REM MP grid 4 1 2 Offset 0.000 0.000 0.000 No. kpts 2 Spacing 0.07
REM Total runtime: 53504.6 s
REM Overall efficiency: 78.8333 %
REM
REM
REM
REM compiler GCC version 4.9.2
REM options -cpp -iprefix /lustre/shared/ucl/apps/gcc/4.9.2/bin/../lib/gcc/x86_64-unknown-linux-gnu/4.9.2/ -mtune=corei7 -march=x86-64 -g -Og
REM COMMAND_LINE
REM seed 1980456565 -190404455 -1474961012 -2078469856 729146983 -233693072 -1070042641 -1866501045 -1021988298 -2063356592 1552916032 -1002575545
REM
REM S 3|1.8|5|6|7|30:31:32(qc=5)
REM O 2|1.5|12|13|15|20:21(qc=5)
REM Li 1|1.3|8|9|10|10U:20(qc=5)
REM Fe 3|2.2|2.0|1.0|8|9|10|40:41:32(qc=5)
REM 
CELL 1.54180    3.70937   24.06968   12.27574   90.00000   90.00000   90.00000
LATT -1
SFAC Li O  S  Fe 
Li     1  0.0831780000000  0.1741880000000  0.3773020000000 1.0  -0.01
Li     1  0.0831780000000 -0.1741880000000 -0.3773020000000 1.0  -0.01
Li     1  0.0831780000000  0.1741880000000 -0.3773020000000 1.0  -0.01
Li     1  0.0831780000000 -0.1741880000000  0.3773020000000 1.0  -0.01
Li     1  0.0792800000000  0.2529250000000  0.2158590000000 1.0  -0.00
Li     1  0.0792800000000 -0.2529250000000 -0.2158590000000 1.0  -0.00
Li     1  0.0792800000000  0.2529250000000 -0.2158590000000 1.0  -0.00
Li     1  0.0792800000000 -0.2529250000000  0.2158590000000 1.0  -0.00
O      2 -0.6801250000000 -0.2146880000000 -0.5000000000000 1.0  -0.24
O      2 -0.6801250000000  0.2146880000000  0.5000000000000 1.0  -0.24
S      3 -0.4156760000000  0.1986550000000  0.2670620000000 1.0  -0.09
S      3 -0.4156760000000 -0.1986550000000 -0.2670620000000 1.0  -0.09
S      3 -0.4156760000000  0.1986550000000 -0.2670620000000 1.0  -0.09
S      3 -0.4156760000000 -0.1986550000000  0.2670620000000 1.0  -0.09
S      3  0.0216040000000  0.3150690000000  0.3584480000000 1.0  -0.19
S      3  0.0216040000000 -0.3150690000000 -0.3584480000000 1.0  -0.19
S      3  0.0216040000000  0.3150690000000 -0.3584480000000 1.0  -0.19
S      3  0.0216040000000 -0.3150690000000  0.3584480000000 1.0  -0.19
Fe     4  0.5230300000000 -0.2663160000000  0.3989710000000 1.0  -2.58
Fe     4  0.5230300000000  0.2663160000000 -0.3989710000000 1.0  -2.58
Fe     4  0.5230300000000 -0.2663160000000 -0.3989710000000 1.0  -2.58
Fe     4  0.5230300000000  0.2663160000000  0.3989710000000 1.0  -2.58
END
