TITL LFSO-LiFe3S2O3-200909-174831-6fffe9 0.0100 126.117634 -4.70822188E+003 -7.11279 8.28376 9 (P2/m) n - 1
REM
REM Run started: Wed, 09 Sep 2020 21:45:32 +0100 in /lustre/scratch/uccabz1/launch_tmp/launcher_2020-09-09-16-48-29-682251
REM CASTEP 20.1 from code version af48c487+ pr-geom-scf-spinfix Tue Jun 2 15:39:59 2020 +0100
REM Functional Perdew Burke Ernzerhof Relativity Koelling-Harmon Dispersion off
REM Cut-off 340.0000 eV Grid scale 1.7500 Gmax 16.5316 1/A FBSC none
REM MP grid 3 5 3 Offset 0.000 0.000 0.000 No. kpts 16 Spacing 0.07
REM Total runtime: 15752.3 s
REM Overall efficiency: 96.4286 %
REM
REM
REM
REM compiler GCC version 4.9.2
REM options -cpp -iprefix /lustre/shared/ucl/apps/gcc/4.9.2/bin/../lib/gcc/x86_64-unknown-linux-gnu/4.9.2/ -mtune=corei7 -march=x86-64 -g -Og
REM COMMAND_LINE
REM seed 1753268616 1515084678 1892201954 919360629 -654389005 -1570149082 -168629707 1128450113 2086159344 726352163 -940203480 -474863304
REM
REM S 3|1.8|5|6|7|30:31:32(qc=5)
REM O 2|1.5|12|13|15|20:21(qc=5)
REM Li 1|1.3|8|9|10|10U:20(qc=5)
REM Fe 3|2.2|2.0|1.0|8|9|10|40:41:32(qc=5)
REM 
CELL 1.54180    5.94483    3.42128    6.22863   95.41782   90.00000   90.00000
LATT -1
SFAC Li O  S  Fe 
Li     1 -0.5000000000000  0.5000000000000  0.0000000000000 1.0  -0.01
O      2 -0.5000000000000  0.1693890000000 -0.3151310000000 1.0  -0.23
O      2  0.5000000000000 -0.1693890000000  0.3151310000000 1.0  -0.23
O      2 -0.5000000000000  0.0000000000000  0.0000000000000 1.0   0.47
S      3  0.0000000000000 -0.0320640000000 -0.2472390000000 1.0   0.07
S      3  0.0000000000000  0.0320640000000  0.2472390000000 1.0   0.07
Fe     4 -0.2762780000000  0.0000000000000  0.5000000000000 1.0  -2.45
Fe     4  0.2762780000000  0.0000000000000 -0.5000000000000 1.0  -2.45
Fe     4  0.0000000000000 -0.5000000000000  0.0000000000000 1.0  -2.36
END
