TITL LFSO-LiFe3S4O-200909-092125-f2530c -0.0070 310.175093 -8.88829162E+003 -0.366630 0.524071 18 (Pnc2) n - 1
REM
REM Run started: Wed, 09 Sep 2020 14:17:12 +0100 in /lustre/scratch/uccabz1/launch_tmp/launcher_2020-09-09-08-21-23-496352
REM CASTEP 20.1 from code version af48c487+ pr-geom-scf-spinfix Tue Jun 2 15:39:59 2020 +0100
REM Functional Perdew Burke Ernzerhof Relativity Koelling-Harmon Dispersion off
REM Cut-off 340.0000 eV Grid scale 1.7500 Gmax 16.5316 1/A FBSC none
REM MP grid 3 3 2 Offset 0.000 0.000 0.000 No. kpts 4 Spacing 0.07
REM Total runtime: 18008.4 s
REM Overall efficiency: 96.625 %
REM
REM
REM
REM compiler GCC version 4.9.2
REM options -cpp -iprefix /lustre/shared/ucl/apps/gcc/4.9.2/bin/../lib/gcc/x86_64-unknown-linux-gnu/4.9.2/ -mtune=corei7 -march=x86-64 -g -Og
REM COMMAND_LINE
REM seed -352947950 257527126 -81845539 1942561319 346587501 -1131013310 366633076 -1724518738 -123624875 -417027928 -905770655 -1161748966
REM
REM S 3|1.8|5|6|7|30:31:32(qc=5)
REM O 2|1.5|12|13|15|20:21(qc=5)
REM Li 1|1.3|8|9|10|10U:20(qc=5)
REM Fe 3|2.2|2.0|1.0|8|9|10|40:41:32(qc=5)
REM 
CELL 1.54180    5.70109    6.61645    8.22288   90.00000   90.00000   90.00000
LATT -1
SFAC Li O  S  Fe 
Li     1  0.0000000000000  0.5449880000000  0.0000000000000 1.0   0.00
Li     1  0.0000000000000  0.0449880000000 -0.5000000000000 1.0   0.00
O      2  0.0000000000000 -0.1780520000000  0.0000000000000 1.0  -0.02
O      2  0.0000000000000  0.3219480000000 -0.5000000000000 1.0  -0.02
S      3 -0.2621640000000 -0.1440200000000  0.3108410000000 1.0   0.00
S      3  0.2621640000000 -0.1440200000000 -0.3108410000000 1.0   0.00
S      3 -0.2621640000000  0.3559800000000  0.1891590000000 1.0   0.00
S      3  0.2621640000000  0.3559800000000 -0.1891590000000 1.0   0.00
S      3  0.2429810000000  0.1185730000000  0.1386050000000 1.0   0.00
S      3 -0.2429810000000  0.1185730000000 -0.1386050000000 1.0   0.00
S      3  0.2429810000000 -0.3814270000000  0.3613950000000 1.0   0.00
S      3 -0.2429810000000 -0.3814270000000 -0.3613950000000 1.0   0.00
Fe     4 -0.1392770000000  0.0352650000000  0.1083900000000 1.0  -0.01
Fe     4  0.1392770000000  0.0352650000000 -0.1083900000000 1.0  -0.01
Fe     4 -0.1392770000000 -0.4647350000000  0.3916100000000 1.0  -0.01
Fe     4  0.1392770000000 -0.4647350000000 -0.3916100000000 1.0  -0.01
Fe     4  0.5000000000000  0.2763990000000  0.0000000000000 1.0  -0.14
Fe     4  0.5000000000000 -0.2236010000000 -0.5000000000000 1.0  -0.14
END
