TITL LFSO-Li4Fe2SO4-200910-131339-205e51 0.1464 620.138368 -9.16116867E+003 -11.8059 12.3487 22 (P2221) n - 1
REM
REM Run started: Fri, 11 Sep 2020 03:24:31 +0100 in /lustre/scratch/uccabz1/launch_tmp/launcher_2020-09-10-12-13-37-505052
REM CASTEP 20.1 from code version af48c487+ pr-geom-scf-spinfix Tue Jun 2 15:39:59 2020 +0100
REM Functional Perdew Burke Ernzerhof Relativity Koelling-Harmon Dispersion off
REM Cut-off 340.0000 eV Grid scale 1.7500 Gmax 16.5316 1/A FBSC none
REM MP grid 6 1 2 Offset 0.000 0.000 0.000 No. kpts 3 Spacing 0.07
REM Total runtime: 57596.5 s
REM Overall efficiency: 97.6667 %
REM
REM
REM
REM compiler GCC version 4.9.2
REM options -cpp -iprefix /lustre/shared/ucl/apps/gcc/4.9.2/bin/../lib/gcc/x86_64-unknown-linux-gnu/4.9.2/ -mtune=corei7 -march=x86-64 -g -Og
REM COMMAND_LINE
REM seed -329375305 1622684542 -1642830365 929521408 1692383678 -1842533694 1083816936 1293891520 -772834413 382660857 126417995 1066418510
REM
REM S 3|1.8|5|6|7|30:31:32(qc=5)
REM O 2|1.5|12|13|15|20:21(qc=5)
REM Li 1|1.3|8|9|10|10U:20(qc=5)
REM Fe 3|2.2|2.0|1.0|8|9|10|40:41:32(qc=5)
REM 
CELL 1.54180    2.71566   19.42527   11.75564   90.00000   90.00000   90.00000
LATT -1
SFAC Li O  S  Fe 
Li     1  0.5222830000000  0.3828910000000 -0.2656670000000 1.0  -0.07
Li     1  0.0222830000000 -0.3828910000000  0.2656670000000 1.0  -0.07
Li     1 -0.0222830000000 -0.3828910000000 -0.2656670000000 1.0  -0.07
Li     1 -0.5222830000000  0.3828910000000  0.2656670000000 1.0  -0.07
Li     1 -0.0010480000000  0.1384360000000  0.1607440000000 1.0   0.01
Li     1 -0.5010480000000 -0.1384360000000 -0.1607440000000 1.0   0.01
Li     1  0.5010480000000 -0.1384360000000  0.1607440000000 1.0   0.01
Li     1  0.0010480000000  0.1384360000000 -0.1607440000000 1.0   0.01
O      2 -0.4767640000000 -0.3273320000000  0.3026920000000 1.0  -0.13
O      2  0.0232360000000  0.3273320000000 -0.3026920000000 1.0  -0.13
O      2 -0.0232360000000  0.3273320000000  0.3026920000000 1.0  -0.13
O      2  0.4767640000000 -0.3273320000000 -0.3026920000000 1.0  -0.13
O      2  0.0256610000000  0.1960290000000 -0.2902700000000 1.0  -0.16
O      2 -0.4743390000000 -0.1960290000000  0.2902700000000 1.0  -0.16
O      2  0.4743390000000 -0.1960290000000 -0.2902700000000 1.0  -0.16
O      2 -0.0256610000000  0.1960290000000  0.2902700000000 1.0  -0.16
S      3 -0.0000000000000 -0.1121050000000  0.0000000000000 1.0  -0.11
S      3  0.5000000000000  0.1121050000000  0.0000000000000 1.0  -0.11
Fe     4 -0.4747430000000  0.2588590000000 -0.3105020000000 1.0  -2.55
Fe     4  0.0252570000000 -0.2588590000000  0.3105020000000 1.0  -2.55
Fe     4 -0.0252570000000 -0.2588590000000 -0.3105020000000 1.0  -2.55
Fe     4  0.4747430000000  0.2588590000000  0.3105020000000 1.0  -2.55
END
