TITL LFSO-Li6FeS3O-200910-031323-69aece 0.3197 355.026991 -6.82770758E+003 8.00000 8.17077 22 (Pc) n - 1
REM
REM Run started: Thu, 10 Sep 2020 14:00:26 +0100 in /lustre/scratch/uccabz1/launch_tmp/launcher_2020-09-10-02-13-22-288819
REM CASTEP 20.1 from code version af48c487+ pr-geom-scf-spinfix Tue Jun 2 15:39:59 2020 +0100
REM Functional Perdew Burke Ernzerhof Relativity Koelling-Harmon Dispersion off
REM Cut-off 340.0000 eV Grid scale 1.7500 Gmax 16.5316 1/A FBSC none
REM MP grid 3 3 2 Offset 0.000 0.000 0.000 No. kpts 6 Spacing 0.07
REM Total runtime: 42265.7 s
REM Overall efficiency: 97.9167 %
REM
REM
REM
REM compiler GCC version 4.9.2
REM options -cpp -iprefix /lustre/shared/ucl/apps/gcc/4.9.2/bin/../lib/gcc/x86_64-unknown-linux-gnu/4.9.2/ -mtune=corei7 -march=x86-64 -g -Og
REM COMMAND_LINE
REM seed -1068000688 1234333409 -2075408537 -1852399946 -157939509 1270266616 145339675 411809539 1606452220 -1767092137 619709172 -1634641018
REM
REM S 3|1.8|5|6|7|30:31:32(qc=5)
REM O 2|1.5|12|13|15|20:21(qc=5)
REM Li 1|1.3|8|9|10|10U:20(qc=5)
REM Fe 3|2.2|2.0|1.0|8|9|10|40:41:32(qc=5)
REM 
CELL 1.54180    5.91362    6.81592   10.70543   90.00000  124.63673   90.00000
LATT -1
SFAC Li O  S  Fe 
Li     1 -0.2441890000000  0.0808900000000 -0.4374760000000 1.0   0.01
Li     1  0.2558110000000 -0.0808900000000 -0.4374760000000 1.0   0.01
Li     1 -0.2517720000000 -0.4660900000000 -0.3183770000000 1.0   0.03
Li     1  0.2482280000000  0.4660900000000 -0.3183770000000 1.0   0.03
Li     1 -0.0291020000000 -0.5196920000000  0.0093990000000 1.0  -0.01
Li     1  0.4708980000000  0.5196920000000  0.0093990000000 1.0  -0.01
Li     1  0.4996290000000 -0.2647180000000  0.2213430000000 1.0  -0.02
Li     1 -0.0003710000000  0.2647180000000  0.2213430000000 1.0  -0.02
Li     1  0.2167030000000 -0.1347340000000 -0.1781300000000 1.0  -0.02
Li     1 -0.2832970000000  0.1347340000000 -0.1781300000000 1.0  -0.02
Li     1 -0.0076500000000 -0.4663440000000  0.3911410000000 1.0   0.03
Li     1  0.4923500000000  0.4663440000000  0.3911410000000 1.0   0.03
O      2 -0.0728200000000  0.1561580000000  0.0367960000000 1.0   0.24
O      2  0.4271800000000 -0.1561580000000  0.0367960000000 1.0   0.24
S      3  0.3718730000000  0.2701180000000 -0.4647110000000 1.0   0.01
S      3 -0.1281270000000 -0.2701180000000 -0.4647110000000 1.0   0.01
S      3  0.1187260000000  0.2554690000000 -0.1908260000000 1.0   0.08
S      3 -0.3812740000000 -0.2554690000000 -0.1908260000000 1.0   0.08
S      3  0.0952100000000 -0.3274070000000  0.2291770000000 1.0   0.10
S      3 -0.4047900000000  0.3274070000000  0.2291770000000 1.0   0.10
Fe     4  0.2631700000000  0.1145550000000  0.0517740000000 1.0   3.56
Fe     4 -0.2368300000000 -0.1145550000000  0.0517740000000 1.0   3.56
END
