TITL LFSO-Li2FeSO-200912-003800-8a09de 0.0135 308.135953 -6.01464937E+003 11.9769 12.2641 15 (R3) n - 1
REM
REM Run started: Sat, 12 Sep 2020 05:49:48 +0100 in /lustre/scratch/uccabz1/launch_tmp/launcher_2020-09-11-23-37-58-369469
REM CASTEP 20.1 from code version af48c487+ pr-geom-scf-spinfix Tue Jun 2 15:39:59 2020 +0100
REM Functional Perdew Burke Ernzerhof Relativity Koelling-Harmon Dispersion off
REM Cut-off 340.0000 eV Grid scale 1.7500 Gmax 16.5316 1/A FBSC none
REM MP grid 3 3 3 Offset 0.000 0.000 0.000 No. kpts 6 Spacing 0.07
REM Total runtime: 19238.4 s
REM Overall efficiency: 97.6364 %
REM
REM
REM
REM compiler GCC version 4.9.2
REM options -cpp -iprefix /lustre/shared/ucl/apps/gcc/4.9.2/bin/../lib/gcc/x86_64-unknown-linux-gnu/4.9.2/ -mtune=corei7 -march=x86-64 -g -Og
REM COMMAND_LINE
REM seed 2085784791 1793536549 39235118 -42841580 280262553 2046200893 662674788 -954898626 351806460 1644099518 522616228 -1899689487
REM
REM S 3|1.8|5|6|7|30:31:32(qc=5)
REM O 2|1.5|12|13|15|20:21(qc=5)
REM Li 1|1.3|8|9|10|10U:20(qc=5)
REM Fe 3|2.2|2.0|1.0|8|9|10|40:41:32(qc=5)
REM 
CELL 1.54180    6.82769    6.82769    6.82769   81.22039   81.22039   81.22039
LATT -1
SFAC Li O  S  Fe 
Li     1 -0.1625570000000  0.0606590000000  0.4228180000000 1.0  -0.06
Li     1  0.4228180000000 -0.1625570000000  0.0606590000000 1.0  -0.06
Li     1  0.0606590000000  0.4228180000000 -0.1625570000000 1.0  -0.06
Li     1  0.4198110000000  0.3285410000000 -0.3302140000000 1.0   0.03
Li     1 -0.3302140000000  0.4198110000000  0.3285410000000 1.0   0.03
Li     1  0.3285410000000 -0.3302140000000  0.4198110000000 1.0   0.03
O      2 -0.3185070000000  0.2456640000000 -0.4292490000000 1.0   0.30
O      2 -0.4292490000000 -0.3185070000000  0.2456640000000 1.0   0.30
O      2  0.2456640000000 -0.4292490000000 -0.3185070000000 1.0   0.30
S      3  0.1047920000000 -0.3301100000000  0.1464540000000 1.0   0.27
S      3  0.1464540000000  0.1047920000000 -0.3301100000000 1.0   0.27
S      3 -0.3301100000000  0.1464540000000  0.1047920000000 1.0   0.27
Fe     4 -0.1859610000000  0.1533160000000 -0.2138450000000 1.0   3.46
Fe     4 -0.2138450000000 -0.1859610000000  0.1533160000000 1.0   3.46
Fe     4  0.1533160000000 -0.2138450000000 -0.1859610000000 1.0   3.46
END
