TITL LFSO-LiFe3SO4-200909-023304-b2c167 -0.0222 105.866936 -4.84603806E+003 -9.04728 9.18495 9 (C2) n - 1
REM
REM Run started: Wed, 09 Sep 2020 04:52:30 +0100 in /lustre/scratch/uccabz1/launch_tmp/launcher_2020-09-09-01-33-02-361249
REM CASTEP 20.1 from code version af48c487+ pr-geom-scf-spinfix Tue Jun 2 15:39:59 2020 +0100
REM Functional Perdew Burke Ernzerhof Relativity Koelling-Harmon Dispersion off
REM Cut-off 340.0000 eV Grid scale 1.7500 Gmax 16.5316 1/A FBSC none
REM MP grid 5 3 5 Offset 0.000 0.000 0.000 No. kpts 34 Spacing 0.07
REM Total runtime: 9399.59 s
REM Overall efficiency: 96.1429 %
REM
REM
REM
REM compiler GCC version 4.9.2
REM options -cpp -iprefix /lustre/shared/ucl/apps/gcc/4.9.2/bin/../lib/gcc/x86_64-unknown-linux-gnu/4.9.2/ -mtune=corei7 -march=x86-64 -g -Og
REM COMMAND_LINE
REM seed -1376543412 40306953 1866613263 -425743313 -782325165 95010660 528730 -1242990466 1423606093 1335558123 2079241965 1746993627
REM
REM S 3|1.8|5|6|7|30:31:32(qc=5)
REM O 2|1.5|12|13|15|20:21(qc=5)
REM Li 1|1.3|8|9|10|10U:20(qc=5)
REM Fe 3|2.2|2.0|1.0|8|9|10|40:41:32(qc=5)
REM 
CELL 1.54180    3.41393    8.90253    5.83791  138.31391  104.56718   93.07322
LATT -1
SFAC Li O  S  Fe 
Li     1  0.3234400000000 -0.1765600000000 -0.3531210000000 1.0  -0.02
O      2  0.2896410000000  0.1698110000000  0.0754570000000 1.0  -0.24
O      2 -0.2141840000000 -0.0943540000000  0.0754570000000 1.0  -0.24
O      2  0.5123570000000 -0.0440670000000  0.5261990000000 1.0  -0.29
O      2  0.0138420000000 -0.4297340000000  0.5261990000000 1.0  -0.29
S      3 -0.0762820000000  0.4237180000000 -0.1525640000000 1.0  -0.03
Fe     4 -0.2197590000000  0.2609510000000  0.0370010000000 1.0  -2.67
Fe     4  0.2567590000000 -0.2239510000000  0.0370010000000 1.0  -2.67
Fe     4  0.2086950000000  0.2086950000000 -0.5826090000000 1.0  -2.60
END
