TITL LFSO-LiFeSO-200909-042418-df9273 -0.0235 93.024264 -1.80442043E+003 3.44841 3.51660 4 (C2) n - 1
REM
REM Run started: Wed, 09 Sep 2020 04:53:48 +0100 in /lustre/scratch/uccabz1/launch_tmp/launcher_2020-09-09-03-24-16-706798
REM CASTEP 20.1 from code version af48c487+ pr-geom-scf-spinfix Tue Jun 2 15:39:59 2020 +0100
REM Functional Perdew Burke Ernzerhof Relativity Koelling-Harmon Dispersion off
REM Cut-off 340.0000 eV Grid scale 1.7500 Gmax 16.5316 1/A FBSC none
REM MP grid 5 4 3 Offset 0.000 0.000 0.000 No. kpts 30 Spacing 0.07
REM Total runtime: 2175.91 s
REM Overall efficiency: 90.2857 %
REM
REM
REM
REM compiler GCC version 4.9.2
REM options -cpp -iprefix /lustre/shared/ucl/apps/gcc/4.9.2/bin/../lib/gcc/x86_64-unknown-linux-gnu/4.9.2/ -mtune=corei7 -march=x86-64 -g -Og
REM COMMAND_LINE
REM seed 1384945888 1151928178 1449846294 -1968394157 1405958283 1368363455 -726904462 1747145246 -1568180513 964987480 -1065255635 -173294528
REM
REM S 3|1.8|5|6|7|30:31:32(qc=5)
REM O 2|1.5|12|13|15|20:21(qc=5)
REM Li 1|1.3|8|9|10|10U:20(qc=5)
REM Fe 3|2.2|2.0|1.0|8|9|10|40:41:32(qc=5)
REM 
CELL 1.54180    3.74586    4.27891    6.42659  107.27526  104.49970   97.08474
LATT -1
SFAC Li O  S  Fe 
Li     1  0.1755870000000  0.1755870000000 -0.6488250000000 1.0   0.02
O      2  0.0235400000000  0.0235400000000  0.0470800000000 1.0   0.45
S      3  0.2796120000000 -0.2203880000000  0.5592240000000 1.0   0.04
Fe     4 -0.1184100000000 -0.1184100000000 -0.2368210000000 1.0   2.94
END
