TITL LFSO-Li2Fe2S3O-200913-053322-2ca49d 0.0078 222.504973 -6.95597428E+003 4.12645 4.58402 16 (P-1) n - 1
REM
REM Run started: Sun, 13 Sep 2020 18:56:23 +0100 in /lustre/scratch/uccabz1/launch_tmp/launcher_2020-09-13-04-33-20-443581
REM CASTEP 20.1 from code version af48c487+ pr-geom-scf-spinfix Tue Jun 2 15:39:59 2020 +0100
REM Functional Perdew Burke Ernzerhof Relativity Koelling-Harmon Dispersion off
REM Cut-off 340.0000 eV Grid scale 1.7500 Gmax 16.5316 1/A FBSC none
REM MP grid 5 2 2 Offset 0.000 0.000 0.000 No. kpts 10 Spacing 0.07
REM Total runtime: 31856.2 s
REM Overall efficiency: 78.625 %
REM
REM
REM
REM compiler GCC version 4.9.2
REM options -cpp -iprefix /lustre/shared/ucl/apps/gcc/4.9.2/bin/../lib/gcc/x86_64-unknown-linux-gnu/4.9.2/ -mtune=corei7 -march=x86-64 -g -Og
REM COMMAND_LINE
REM seed 1247886103 2075981817 -804984046 -1571568352 486126158 1273738065 1381687451 1575892680 619759188 -1583281923 -967904385 -691776172
REM
REM S 3|1.8|5|6|7|30:31:32(qc=5)
REM O 2|1.5|12|13|15|20:21(qc=5)
REM Li 1|1.3|8|9|10|10U:20(qc=5)
REM Fe 3|2.2|2.0|1.0|8|9|10|40:41:32(qc=5)
REM 
CELL 1.54180    3.37654    9.35182    8.78072   61.36337   70.94327   68.48675
LATT -1
SFAC Li O  S  Fe 
Li     1  0.3820890000000  0.4039810000000 -0.3615060000000 1.0  -0.00
Li     1 -0.3820890000000 -0.4039810000000  0.3615060000000 1.0  -0.00
Li     1  0.1304950000000  0.2413940000000  0.4873030000000 1.0  -0.01
Li     1 -0.1304950000000 -0.2413940000000 -0.4873030000000 1.0  -0.01
O      2  0.4545620000000 -0.3691100000000 -0.4263530000000 1.0   0.15
O      2 -0.4545620000000  0.3691100000000  0.4263530000000 1.0   0.15
S      3 -0.1147480000000  0.4387430000000 -0.1003290000000 1.0  -0.01
S      3  0.1147480000000 -0.4387430000000  0.1003290000000 1.0  -0.01
S      3  0.3973630000000  0.1603940000000  0.2370650000000 1.0   0.03
S      3 -0.3973630000000 -0.1603940000000 -0.2370650000000 1.0   0.03
S      3  0.2587690000000 -0.1298660000000  0.1393510000000 1.0  -0.05
S      3 -0.2587690000000  0.1298660000000 -0.1393510000000 1.0  -0.05
Fe     4  0.0623740000000  0.1583640000000  0.0319310000000 1.0   0.84
Fe     4 -0.0623740000000 -0.1583640000000 -0.0319310000000 1.0   0.84
Fe     4  0.2774810000000 -0.3761000000000 -0.1934270000000 1.0   1.11
Fe     4 -0.2774810000000  0.3761000000000  0.1934270000000 1.0   1.11
END
