TITL LFSO-Li4Fe2S3O2-200911-093132-5bbc2f 0.0828 183.997776 -4.31452774E+003 -7.58786 7.71380 11 (R3) n - 1
REM
REM Run started: Fri, 11 Sep 2020 17:07:34 +0100 in /lustre/scratch/uccabz1/launch_tmp/launcher_2020-09-11-13-39-13-165788
REM CASTEP 20.1 from code version af48c487+ pr-geom-scf-spinfix Tue Jun 2 15:39:59 2020 +0100
REM Functional Perdew Burke Ernzerhof Relativity Koelling-Harmon Dispersion off
REM Cut-off 340.0000 eV Grid scale 1.7500 Gmax 16.5316 1/A FBSC none
REM MP grid 3 3 4 Offset 0.000 0.000 0.000 No. kpts 14 Spacing 0.07
REM Total runtime: 20359.9 s
REM Overall efficiency: 97 %
REM
REM
REM
REM compiler GCC version 4.9.2
REM options -cpp -iprefix /lustre/shared/ucl/apps/gcc/4.9.2/bin/../lib/gcc/x86_64-unknown-linux-gnu/4.9.2/ -mtune=corei7 -march=x86-64 -g -Og
REM COMMAND_LINE
REM seed -810836251 1011465652 -683722772 -1464501202 2135886174 -415641047 -1548217670 1684328927 -1134251110 -1305776348 -1644589264 253060977
REM
REM S 3|1.8|5|6|7|30:31:32(qc=5)
REM O 2|1.5|12|13|15|20:21(qc=5)
REM Li 1|1.3|8|9|10|10U:20(qc=5)
REM Fe 3|2.2|2.0|1.0|8|9|10|40:41:32(qc=5)
REM 
CELL 1.54180    6.85805    6.85805    6.00698   55.19112   55.19112   60.00000
LATT -1
SFAC Li O  S  Fe 
Li     1 -0.0164310000000  0.0203410000000 -0.4681080000000 1.0   0.03
Li     1 -0.5358010000000 -0.0164310000000 -0.4681080000000 1.0   0.03
Li     1  0.0203410000000 -0.5358010000000 -0.4681080000000 1.0   0.03
Li     1 -0.2986060000000 -0.2986060000000 -0.1041800000000 1.0  -0.06
O      2  0.1114830000000  0.1114830000000 -0.3344480000000 1.0  -0.27
O      2 -0.1548080000000 -0.1548080000000  0.4644250000000 1.0  -0.27
S      3  0.0001820000000  0.3304450000000  0.0397520000000 1.0  -0.21
S      3 -0.3703780000000  0.0001820000000  0.0397520000000 1.0  -0.21
S      3  0.3304450000000 -0.3703780000000  0.0397520000000 1.0  -0.21
Fe     4 -0.0202760000000 -0.0202760000000  0.0608290000000 1.0  -2.96
Fe     4  0.3526320000000  0.3526320000000 -0.0578950000000 1.0  -3.47
END
