TITL LFSO-Li4Fe2SO3-200910-211903-b3d0ef 0.3667 636.541732 -8.28331263E+003 12.2154 12.8606 20 (C222) n - 1
REM
REM Run started: Fri, 11 Sep 2020 11:50:17 +0100 in /lustre/scratch/uccabz1/launch_tmp/launcher_2020-09-10-20-19-01-512602
REM CASTEP 20.1 from code version af48c487+ pr-geom-scf-spinfix Tue Jun 2 15:39:59 2020 +0100
REM Functional Perdew Burke Ernzerhof Relativity Koelling-Harmon Dispersion off
REM Cut-off 340.0000 eV Grid scale 1.7500 Gmax 16.5316 1/A FBSC none
REM MP grid 2 3 3 Offset 0.000 0.000 0.000 No. kpts 4 Spacing 0.07
REM Total runtime: 60626.2 s
REM Overall efficiency: 98.25 %
REM
REM
REM
REM compiler GCC version 4.9.2
REM options -cpp -iprefix /lustre/shared/ucl/apps/gcc/4.9.2/bin/../lib/gcc/x86_64-unknown-linux-gnu/4.9.2/ -mtune=corei7 -march=x86-64 -g -Og
REM COMMAND_LINE
REM seed 1248737565 -1130839835 -546131272 -285810953 -1447055463 -1136086630 2073199237 -1762421212 -1546629448 -1121031242 -151317658 1825210444
REM
REM S 3|1.8|5|6|7|30:31:32(qc=5)
REM O 2|1.5|12|13|15|20:21(qc=5)
REM Li 1|1.3|8|9|10|10U:20(qc=5)
REM Fe 3|2.2|2.0|1.0|8|9|10|40:41:32(qc=5)
REM 
CELL 1.54180    7.94027   12.19423   12.19423  147.37650   90.00000   90.00000
LATT -1
SFAC Li O  S  Fe 
Li     1  0.1990640000000  0.3164590000000 -0.3178650000000 1.0  -0.04
Li     1  0.1990640000000 -0.3164590000000  0.3178650000000 1.0  -0.04
Li     1 -0.1990640000000  0.3178650000000 -0.3164590000000 1.0  -0.04
Li     1 -0.1990640000000 -0.3178650000000  0.3164590000000 1.0  -0.04
Li     1 -0.2029290000000  0.0770460000000  0.2432230000000 1.0  -0.01
Li     1 -0.2029290000000 -0.0770460000000 -0.2432230000000 1.0  -0.01
Li     1  0.2029290000000 -0.2432230000000 -0.0770460000000 1.0  -0.01
Li     1  0.2029290000000  0.2432230000000  0.0770460000000 1.0  -0.01
O      2 -0.2021590000000  0.1158340000000  0.4161840000000 1.0   0.20
O      2 -0.2021590000000 -0.1158340000000 -0.4161840000000 1.0   0.20
O      2  0.2021590000000 -0.4161840000000 -0.1158340000000 1.0   0.20
O      2  0.2021590000000  0.4161840000000  0.1158340000000 1.0   0.20
O      2 -0.0000000000000  0.2639260000000 -0.2639260000000 1.0   0.16
O      2 -0.0000000000000 -0.2639260000000  0.2639260000000 1.0   0.16
S      3 -0.1355320000000  0.0000000000000  0.0000000000000 1.0   0.00
S      3  0.1355320000000  0.0000000000000  0.0000000000000 1.0   0.00
Fe     4  0.1089520000000  0.3471260000000 -0.0670160000000 1.0   2.82
Fe     4  0.1089520000000 -0.3471260000000  0.0670160000000 1.0   2.82
Fe     4 -0.1089520000000  0.0670160000000 -0.3471260000000 1.0   2.82
Fe     4 -0.1089520000000 -0.0670160000000  0.3471260000000 1.0   2.82
END
