TITL LFSO-Li2Fe2SO2-200912-215904-2b3339 0.0062 75.238296 -3.30662198E+003 6.33938 6.54528 7 (Fmm2) n - 1
REM
REM Run started: Sat, 12 Sep 2020 23:14:17 +0100 in /lustre/scratch/uccabz1/launch_tmp/launcher_2020-09-12-20-59-02-908120
REM CASTEP 20.1 from code version af48c487+ pr-geom-scf-spinfix Tue Jun 2 15:39:59 2020 +0100
REM Functional Perdew Burke Ernzerhof Relativity Koelling-Harmon Dispersion off
REM Cut-off 340.0000 eV Grid scale 1.7500 Gmax 16.5316 1/A FBSC none
REM MP grid 7 7 2 Offset 0.000 0.000 0.000 No. kpts 28 Spacing 0.07
REM Total runtime: 4733.84 s
REM Overall efficiency: 93.6 %
REM
REM
REM
REM compiler GCC version 4.9.2
REM options -cpp -iprefix /lustre/shared/ucl/apps/gcc/4.9.2/bin/../lib/gcc/x86_64-unknown-linux-gnu/4.9.2/ -mtune=corei7 -march=x86-64 -g -Og
REM COMMAND_LINE
REM seed -1395819062 -1562128431 727743600 -256498610 -2004768882 492394411 -1596540408 1016470327 -1690138608 1439541402 -1272681887 628650589
REM
REM S 3|1.8|5|6|7|30:31:32(qc=5)
REM O 2|1.5|12|13|15|20:21(qc=5)
REM Li 1|1.3|8|9|10|10U:20(qc=5)
REM Fe 3|2.2|2.0|1.0|8|9|10|40:41:32(qc=5)
REM 
CELL 1.54180    2.83692    2.83692   11.61998   79.49780   79.49780  120.19016
LATT -1
SFAC Li O  S  Fe 
Li     1 -0.2129440000000 -0.1915640000000  0.3059800000000 1.0   0.00
Li     1  0.1915640000000  0.2129440000000 -0.3059800000000 1.0   0.00
O      2 -0.4006760000000  0.2927280000000  0.2052480000000 1.0   0.24
O      2 -0.2927280000000  0.4006760000000 -0.2052480000000 1.0   0.24
S      3 -0.1872590000000  0.1872590000000  0.5000000000000 1.0   0.00
Fe     4  0.4139420000000 -0.1922180000000  0.0931860000000 1.0   2.93
Fe     4  0.1922180000000 -0.4139420000000 -0.0931860000000 1.0   2.93
END
