TITL LFSO-Li2Fe2S2O-200913-120526-bbb3aa -0.4391 217.778026 -6.34436176E+003 15.4820 15.6134 14 (P21/c) n - 1
REM
REM Run started: Sun, 13 Sep 2020 17:24:19 +0100 in /lustre/scratch/uccabz1/launch_tmp/launcher_2020-09-13-16-02-20-063669
REM CASTEP 20.1 from code version af48c487+ pr-geom-scf-spinfix Tue Jun 2 15:39:59 2020 +0100
REM Functional Perdew Burke Ernzerhof Relativity Koelling-Harmon Dispersion off
REM Cut-off 340.0000 eV Grid scale 1.7500 Gmax 16.5316 1/A FBSC none
REM MP grid 6 5 1 Offset 0.000 0.000 0.000 No. kpts 15 Spacing 0.07
REM Total runtime: 18219.8 s
REM Overall efficiency: 93.7273 %
REM
REM
REM
REM compiler GCC version 4.9.2
REM options -cpp -iprefix /lustre/shared/ucl/apps/gcc/4.9.2/bin/../lib/gcc/x86_64-unknown-linux-gnu/4.9.2/ -mtune=corei7 -march=x86-64 -g -Og
REM COMMAND_LINE
REM seed 267317900 867040507 -334430807 -1071676653 719953557 -379807064 -328063936 865515048 -1365971427 -2136765527 924878578 262503647
REM
REM S 3|1.8|5|6|7|30:31:32(qc=5)
REM O 2|1.5|12|13|15|20:21(qc=5)
REM Li 1|1.3|8|9|10|10U:20(qc=5)
REM Fe 3|2.2|2.0|1.0|8|9|10|40:41:32(qc=5)
REM 
CELL 1.54180    3.68685    5.13890   17.19642   90.00000   90.00000  138.05470
LATT -1
SFAC Li O  S  Fe 
Li     1 -0.0217950000000 -0.0101070000000  0.3021590000000 1.0   0.03
Li     1  0.0217950000000 -0.4898930000000 -0.1978410000000 1.0   0.03
Li     1  0.0217950000000  0.0101070000000 -0.3021590000000 1.0   0.03
Li     1 -0.0217950000000  0.4898930000000  0.1978410000000 1.0   0.03
O      2  0.0000000000000  0.5000000000000  0.0000000000000 1.0   0.45
O      2  0.0000000000000 -0.0000000000000 -0.5000000000000 1.0   0.45
S      3 -0.0017650000000  0.0170560000000  0.1571070000000 1.0   0.20
S      3  0.0017650000000  0.4829440000000 -0.3428930000000 1.0   0.20
S      3  0.0017650000000 -0.0170560000000 -0.1571070000000 1.0   0.20
S      3 -0.0017650000000 -0.4829440000000  0.3428930000000 1.0   0.20
Fe     4  0.5726980000000 -0.0217560000000 -0.4349340000000 1.0   3.41
Fe     4 -0.5726980000000 -0.4782440000000  0.0650660000000 1.0   3.41
Fe     4 -0.5726980000000  0.0217560000000  0.4349340000000 1.0   3.41
Fe     4  0.5726980000000  0.4782440000000 -0.0650660000000 1.0   3.41
END
