TITL LFSO-Li2Fe2SO3-200913-105511-aa6df8 0.2662 330.664546 -1.12300559E+004 12.2236 13.8312 24 (P-1) n - 1
REM
REM Run started: Tue, 15 Sep 2020 13:10:56 +0100 in /lustre/scratch/uccabz1/launch_tmp/launcher_2020-09-15-09-52-25-335532
REM CASTEP 20.1 from code version af48c487+ pr-geom-scf-spinfix Tue Jun 2 15:39:59 2020 +0100
REM Functional Perdew Burke Ernzerhof Relativity Koelling-Harmon Dispersion off
REM Cut-off 340.0000 eV Grid scale 1.7500 Gmax 16.5316 1/A FBSC none
REM MP grid 5 2 2 Offset 0.000 0.000 0.000 No. kpts 10 Spacing 0.07
REM Total runtime: 176524 s
REM Overall efficiency: 91.5 %
REM
REM
REM
REM compiler GCC version 4.9.2
REM options -cpp -iprefix /lustre/shared/ucl/apps/gcc/4.9.2/bin/../lib/gcc/x86_64-unknown-linux-gnu/4.9.2/ -mtune=corei7 -march=x86-64 -g -Og
REM COMMAND_LINE
REM seed -1046872122 -79734626 1649650446 -959475313 -1127306284 936920937 -1748977695 -1053463609 384621398 -929034416 2029839845 -756003677
REM
REM S 3|1.8|5|6|7|30:31:32(qc=5)
REM O 2|1.5|12|13|15|20:21(qc=5)
REM Li 1|1.3|8|9|10|10U:20(qc=5)
REM Fe 3|2.2|2.0|1.0|8|9|10|40:41:32(qc=5)
REM 
CELL 1.54180    3.60185    7.55887   12.92335   85.60896  104.14772  104.22595
LATT -1
SFAC Li O  S  Fe 
Li     1 -0.5327470000000  0.0364830000000 -0.0933040000000 1.0  -0.02
Li     1  0.5327470000000 -0.0364830000000  0.0933040000000 1.0  -0.02
Li     1  0.0758550000000  0.2320130000000  0.0352430000000 1.0   0.00
Li     1 -0.0758550000000 -0.2320130000000 -0.0352430000000 1.0   0.00
Li     1  0.3908530000000 -0.2353860000000 -0.5360180000000 1.0   0.01
Li     1 -0.3908530000000  0.2353860000000  0.5360180000000 1.0   0.01
O      2 -0.3374970000000  0.3016900000000 -0.0744630000000 1.0  -0.01
O      2  0.3374970000000 -0.3016900000000  0.0744630000000 1.0  -0.01
O      2  0.0540680000000 -0.1673090000000 -0.2045770000000 1.0   0.15
O      2 -0.0540680000000  0.1673090000000  0.2045770000000 1.0   0.15
O      2  0.2073630000000 -0.1607700000000  0.3149280000000 1.0   0.21
O      2 -0.2073630000000  0.1607700000000 -0.3149280000000 1.0   0.21
O      2  0.5276140000000 -0.3116210000000 -0.3896280000000 1.0   0.10
O      2 -0.5276140000000  0.3116210000000  0.3896280000000 1.0   0.10
O      2  0.0000000000000  0.0000000000000  0.0000000000000 1.0   0.01
S      3 -0.5306730000000 -0.4805270000000  0.1270650000000 1.0  -0.04
S      3  0.5306730000000  0.4805270000000 -0.1270650000000 1.0  -0.04
S      3  0.0000000000000  0.0000000000000  0.5000000000000 1.0   0.18
Fe     4 -0.2422670000000  0.6188310000000 -0.2592850000000 1.0  -0.17
Fe     4  0.2422670000000 -0.6188310000000  0.2592850000000 1.0  -0.17
Fe     4 -0.1830190000000 -0.0794050000000 -0.3390770000000 1.0   2.96
Fe     4  0.1830190000000  0.0794050000000  0.3390770000000 1.0   2.96
Fe     4 -0.0290270000000 -0.3714680000000  0.2526430000000 1.0   2.82
Fe     4  0.0290270000000  0.3714680000000 -0.2526430000000 1.0   2.82
END
