TITL LFSO-Li2Fe3S2O2-200921-021658-ec4c1d -0.0857 125.998035 -4.47356688E+003 0.233593 0.291358 9 (R3) n - 1
REM
REM Run started: Mon, 21 Sep 2020 03:57:25 +0100 in /lustre/scratch/uccabz1/launch_tmp/launcher_2020-09-21-01-16-57-242063
REM CASTEP 20.1 from code version af48c487+ pr-geom-scf-spinfix Tue Jun 2 15:39:59 2020 +0100
REM Functional Perdew Burke Ernzerhof Relativity Koelling-Harmon Dispersion off
REM Cut-off 340.0000 eV Grid scale 1.7500 Gmax 16.5316 1/A FBSC none
REM MP grid 4 4 4 Offset 0.000 0.000 0.000 No. kpts 12 Spacing 0.07
REM Total runtime: 6091.68 s
REM Overall efficiency: 94.4286 %
REM
REM
REM
REM compiler GCC version 4.9.2
REM options -cpp -iprefix /lustre/shared/ucl/apps/gcc/4.9.2/bin/../lib/gcc/x86_64-unknown-linux-gnu/4.9.2/ -mtune=corei7 -march=x86-64 -g -Og
REM COMMAND_LINE
REM seed -964903185 1805336207 737048710 -663668887 611458672 -233804805 1422618030 1553135935 672574490 -505793232 1368285842 -97325407
REM
REM S 3|1.8|5|6|7|30:31:32(qc=5)
REM O 2|1.5|12|13|15|20:21(qc=5)
REM Li 1|1.3|8|9|10|10U:20(qc=5)
REM Fe 3|2.2|2.0|1.0|8|9|10|40:41:32(qc=5)
REM 
CELL 1.54180    6.85651    6.85651    6.85651   41.14175   41.14175   41.14175
LATT -1
SFAC Li O  S  Fe 
Li     1  0.3660710000000  0.3660710000000  0.3660710000000 1.0  -0.01
Li     1  0.1529470000000  0.1529470000000  0.1529470000000 1.0   0.00
O      2 -0.3429010000000 -0.3429010000000 -0.3429010000000 1.0  -0.00
O      2  0.2564670000000  0.2564670000000  0.2564670000000 1.0   0.00
S      3  0.0150740000000  0.0150740000000  0.0150740000000 1.0  -0.00
S      3 -0.4994940000000 -0.4994940000000 -0.4994940000000 1.0   0.01
Fe     4 -0.3480080000000 -0.1336600000000  0.2741170000000 1.0   0.08
Fe     4 -0.1336600000000  0.2741170000000 -0.3480080000000 1.0   0.08
Fe     4  0.2741170000000 -0.3480080000000 -0.1336600000000 1.0   0.08
END
