TITL LFSO-LiFe3S2O3-200909-171049-7531c2 -0.0286 153.159044 -4.71224653E+003 5.45130 5.71169 9 (P-1) n - 1
REM
REM Run started: Wed, 09 Sep 2020 19:54:59 +0100 in /lustre/scratch/uccabz1/launch_tmp/launcher_2020-09-09-16-10-48-104492
REM CASTEP 20.1 from code version af48c487+ pr-geom-scf-spinfix Tue Jun 2 15:39:59 2020 +0100
REM Functional Perdew Burke Ernzerhof Relativity Koelling-Harmon Dispersion off
REM Cut-off 340.0000 eV Grid scale 1.7500 Gmax 16.5316 1/A FBSC none
REM MP grid 4 3 3 Offset 0.000 0.000 0.000 No. kpts 18 Spacing 0.07
REM Total runtime: 11974.6 s
REM Overall efficiency: 97.1429 %
REM
REM
REM
REM compiler GCC version 4.9.2
REM options -cpp -iprefix /lustre/shared/ucl/apps/gcc/4.9.2/bin/../lib/gcc/x86_64-unknown-linux-gnu/4.9.2/ -mtune=corei7 -march=x86-64 -g -Og
REM COMMAND_LINE
REM seed -657215611 8031302 2026765886 438330902 335012522 194347785 1095439088 502158235 -1079894430 81915270 39793948 783430579
REM
REM S 3|1.8|5|6|7|30:31:32(qc=5)
REM O 2|1.5|12|13|15|20:21(qc=5)
REM Li 1|1.3|8|9|10|10U:20(qc=5)
REM Fe 3|2.2|2.0|1.0|8|9|10|40:41:32(qc=5)
REM 
CELL 1.54180    5.69606    5.56410    6.34657   93.93368  129.36525   94.55561
LATT -1
SFAC Li O  S  Fe 
Li     1  0.0000000000000  0.0000000000000 -0.5000000000000 1.0   0.02
O      2  0.0434910000000 -0.1606550000000 -0.2349070000000 1.0   0.17
O      2 -0.0434910000000  0.1606550000000  0.2349070000000 1.0   0.17
O      2  0.5000000000000 -0.5000000000000  0.0000000000000 1.0   0.11
S      3 -0.2138350000000  0.2866670000000 -0.2940940000000 1.0   0.04
S      3  0.2138350000000 -0.2866670000000  0.2940940000000 1.0   0.04
Fe     4  0.1795670000000 -0.4173190000000 -0.0597880000000 1.0   1.30
Fe     4 -0.1795670000000  0.4173190000000  0.0597880000000 1.0   1.30
Fe     4  0.0000000000000  0.0000000000000  0.0000000000000 1.0   2.29
END
