TITL LFSO-LiFe3S4O-200909-110719-c8a0cb 0.0245 147.269461 -4.44410275E+003 -0.950724 1.15395 9 (P3) n - 1
REM
REM Run started: Wed, 09 Sep 2020 11:56:06 +0100 in /lustre/scratch/uccabz1/launch_tmp/launcher_2020-09-09-10-07-17-469340
REM CASTEP 20.1 from code version af48c487+ pr-geom-scf-spinfix Tue Jun 2 15:39:59 2020 +0100
REM Functional Perdew Burke Ernzerhof Relativity Koelling-Harmon Dispersion off
REM Cut-off 340.0000 eV Grid scale 1.7500 Gmax 16.5316 1/A FBSC none
REM MP grid 3 4 4 Offset 0.000 0.000 0.000 No. kpts 24 Spacing 0.07
REM Total runtime: 4160.04 s
REM Overall efficiency: 96 %
REM
REM
REM
REM compiler GCC version 4.9.2
REM options -cpp -iprefix /lustre/shared/ucl/apps/gcc/4.9.2/bin/../lib/gcc/x86_64-unknown-linux-gnu/4.9.2/ -mtune=corei7 -march=x86-64 -g -Og
REM COMMAND_LINE
REM seed 1417883889 651147413 1216058311 -1840498572 -1798226573 614726921 -1107715252 1010804941 855207391 -340247931 -1273702202 1893896391
REM
REM S 3|1.8|5|6|7|30:31:32(qc=5)
REM O 2|1.5|12|13|15|20:21(qc=5)
REM Li 1|1.3|8|9|10|10U:20(qc=5)
REM Fe 3|2.2|2.0|1.0|8|9|10|40:41:32(qc=5)
REM 
CELL 1.54180    6.01598    5.31665    5.31665  120.00000   90.00000   90.00000
LATT -1
SFAC Li O  S  Fe 
Li     1  0.4869020000000  0.0000000000000 -0.0000000000000 1.0   0.01
O      2  0.2883440000000 -0.3333330000000  0.3333330000000 1.0  -0.00
S      3 -0.1210280000000  0.2958410000000 -0.0329480000000 1.0   0.01
S      3 -0.1210280000000 -0.3287900000000 -0.2958410000000 1.0   0.01
S      3 -0.1210280000000  0.0329480000000  0.3287900000000 1.0   0.01
S      3  0.3064660000000  0.3333330000000 -0.3333330000000 1.0  -0.01
Fe     4  0.0833880000000 -0.3360860000000  0.0555390000000 1.0  -0.33
Fe     4  0.0833880000000  0.3916250000000  0.3360860000000 1.0  -0.33
Fe     4  0.0833880000000 -0.0555390000000 -0.3916250000000 1.0  -0.33
END
