TITL LFSO-Li2FeSO-200912-011825-a8b5d1 0.0537 336.295929 -2.00415437E+003 2.97448 3.12251 5 (Pm) n - 1
REM
REM Run started: Sat, 12 Sep 2020 04:10:03 +0100 in /lustre/scratch/uccabz1/launch_tmp/launcher_2020-09-12-00-18-23-493180
REM CASTEP 20.1 from code version af48c487+ pr-geom-scf-spinfix Tue Jun 2 15:39:59 2020 +0100
REM Functional Perdew Burke Ernzerhof Relativity Koelling-Harmon Dispersion off
REM Cut-off 340.0000 eV Grid scale 1.7500 Gmax 16.5316 1/A FBSC none
REM MP grid 5 5 1 Offset 0.000 0.000 0.000 No. kpts 9 Spacing 0.07
REM Total runtime: 12862.7 s
REM Overall efficiency: 93.0769 %
REM
REM
REM
REM compiler GCC version 4.9.2
REM options -cpp -iprefix /lustre/shared/ucl/apps/gcc/4.9.2/bin/../lib/gcc/x86_64-unknown-linux-gnu/4.9.2/ -mtune=corei7 -march=x86-64 -g -Og
REM COMMAND_LINE
REM seed -2071923023 1234257720 1676864284 75264596 -1387182000 1133050087 62243135 678248423 -227049276 -1613939379 -1349347502 1605937583
REM
REM S 3|1.8|5|6|7|30:31:32(qc=5)
REM O 2|1.5|12|13|15|20:21(qc=5)
REM Li 1|1.3|8|9|10|10U:20(qc=5)
REM Fe 3|2.2|2.0|1.0|8|9|10|40:41:32(qc=5)
REM 
CELL 1.54180    3.28781    3.26608   31.33335   90.00000   88.18100   90.00000
LATT -1
SFAC Li O  S  Fe 
Li     1 -0.1941910000000  0.0000000000000 -0.1117050000000 1.0  -0.00
Li     1  0.2943590000000  0.5000000000000 -0.0685840000000 1.0  -0.00
O      2  0.2995700000000  0.0000000000000 -0.0900390000000 1.0   0.00
S      3 -0.3688730000000  0.0000000000000  0.4826670000000 1.0   0.15
Fe     4  0.1347830000000 -0.5000000000000 -0.5175150000000 1.0   2.82
END
