TITL LFSO-Li4FeSO2-200910-085537-e978a3 -0.0818 94.787436 -2.84332098E+003 3.99142 4.03282 8 (Cmmm) n - 1
REM
REM Run started: Thu, 10 Sep 2020 09:38:38 +0100 in /lustre/scratch/uccabz1/launch_tmp/launcher_2020-09-10-07-55-35-479352
REM CASTEP 20.1 from code version af48c487+ pr-geom-scf-spinfix Tue Jun 2 15:39:59 2020 +0100
REM Functional Perdew Burke Ernzerhof Relativity Koelling-Harmon Dispersion off
REM Cut-off 340.0000 eV Grid scale 1.7500 Gmax 16.5316 1/A FBSC none
REM MP grid 4 4 4 Offset 0.000 0.000 0.000 No. kpts 32 Spacing 0.07
REM Total runtime: 3056.39 s
REM Overall efficiency: 94 %
REM
REM
REM
REM compiler GCC version 4.9.2
REM options -cpp -iprefix /lustre/shared/ucl/apps/gcc/4.9.2/bin/../lib/gcc/x86_64-unknown-linux-gnu/4.9.2/ -mtune=corei7 -march=x86-64 -g -Og
REM COMMAND_LINE
REM seed -1434741318 604548495 -1213396001 483840932 1577342795 246394809 -286496574 -1306615191 1976533372 1795377481 -1773638019 -1526121603
REM
REM S 3|1.8|5|6|7|30:31:32(qc=5)
REM O 2|1.5|12|13|15|20:21(qc=5)
REM Li 1|1.3|8|9|10|10U:20(qc=5)
REM Fe 3|2.2|2.0|1.0|8|9|10|40:41:32(qc=5)
REM 
CELL 1.54180    6.71975    3.85862    6.71857   89.91622  147.03594   90.07796
LATT -1
SFAC Li O  S  Fe 
Li     1 -0.3255580000000  0.5002430000000 -0.6750150000000 1.0  -0.02
Li     1  0.3255580000000 -0.5002430000000  0.6750150000000 1.0  -0.02
Li     1  0.1315120000000  0.0004410000000 -0.1318180000000 1.0  -0.04
Li     1 -0.1315120000000 -0.0004410000000  0.1318180000000 1.0  -0.04
O      2 -0.1547370000000 -0.5007200000000  0.1552550000000 1.0   0.13
O      2  0.1547370000000  0.5007200000000 -0.1552550000000 1.0   0.13
S      3  0.5000000000000  0.0000000000000 -0.5000000000000 1.0   0.19
Fe     4  0.0000000000000  0.5000000000000  0.0000000000000 1.0   3.65
END
