TITL LFSO-Li3Fe3SO5-201001-220323-c8fbcf 0.0046 459.819727 -1.13657945E+004 17.7189 18.5661 24 (P1) n - 1
REM
REM Run started: Fri, 02 Oct 2020 05:25:31 +0100 in /scratch/scratch/mmm0366/launch_tmp/launcher_2020-10-01-21-03-21-712821
REM CASTEP 19.11| from code version Version unavailable
REM Functional Perdew Burke Ernzerhof Relativity Koelling-Harmon Dispersion off
REM Cut-off 340.0000 eV Grid scale 1.7500 Gmax 16.5316 1/A FBSC none
REM MP grid 3 3 2 Offset 0.000 0.000 0.000 No. kpts 4 Spacing 0.07
REM Total runtime: 29779 s
REM Overall efficiency: 77.5 %
REM
REM
REM
REM compiler GCC version 4.9.2
REM options -cpp -iprefix /scratch/UCL/applications/gcc/4.9.2/bin/../lib/gcc/x86_64-unknown-linux-gnu/4.9.2/ -mtune=corei7 -march=x86-64 -g -O2
REM COMMAND_LINE
REM seed 1054591015 534954145 1109813591 -846046357 -1677943234 1833242935 -1597201065 -440008353 -1334815075 2024943959 -1158779459 2144725111
REM
REM S 3|1.8|5|6|7|30:31:32(qc=5)
REM O 2|1.5|12|13|15|20:21(qc=5)
REM Li 1|1.3|8|9|10|10U:20(qc=5)
REM Fe 3|2.2|2.0|1.0|8|9|10|40:41:32(qc=5)
REM 
CELL 1.54180    6.26726    6.26726   12.08732   90.00000   90.00000  104.41759
LATT -1
SFAC Li O  S  Fe 
Li     1  0.0794550000000 -0.6593020000000 -0.2908010000000 1.0  -0.00
Li     1 -0.0794550000000  0.6593020000000  0.2091990000000 1.0  -0.00
Li     1 -0.6593020000000  0.0794550000000  0.2091990000000 1.0  -0.00
Li     1  0.6593020000000 -0.0794550000000 -0.2908010000000 1.0  -0.00
Li     1 -0.2308620000000  0.2308620000000 -0.1477640000000 1.0   0.00
Li     1  0.2308620000000 -0.2308620000000  0.3522360000000 1.0   0.00
O      2  0.3388340000000  0.3101780000000  0.1063760000000 1.0   0.15
O      2 -0.3388340000000 -0.3101780000000 -0.3936240000000 1.0   0.15
O      2  0.3101780000000  0.3388340000000 -0.3936240000000 1.0   0.15
O      2 -0.3101780000000 -0.3388340000000  0.1063760000000 1.0   0.15
O      2  0.6352660000000 -0.0795590000000 -0.1356850000000 1.0   0.32
O      2 -0.6352660000000  0.0795590000000  0.3643150000000 1.0   0.32
O      2 -0.0795590000000  0.6352660000000  0.3643150000000 1.0   0.32
O      2  0.0795590000000 -0.6352660000000 -0.1356850000000 1.0   0.32
O      2 -0.2400900000000  0.2400900000000 -0.3125350000000 1.0   0.21
O      2  0.2400900000000 -0.2400900000000  0.1874650000000 1.0   0.21
S      3 -0.1531410000000  0.1531410000000  0.0804930000000 1.0   0.07
S      3  0.1531410000000 -0.1531410000000 -0.4195070000000 1.0   0.07
Fe     4  0.1463650000000 -0.6791890000000 -0.0032010000000 1.0   2.64
Fe     4 -0.1463650000000  0.6791890000000  0.4967990000000 1.0   2.64
Fe     4 -0.6791890000000  0.1463650000000  0.4967990000000 1.0   2.64
Fe     4  0.6791890000000 -0.1463650000000 -0.0032010000000 1.0   2.64
Fe     4 -0.3989100000000  0.3989100000000 -0.3715050000000 1.0   2.36
Fe     4  0.3989100000000 -0.3989100000000  0.1284950000000 1.0   2.36
END
