TITL LFSO-Li4Fe2SO3-200910-235336-710195 0.0313 156.466947 -4.13971507E+003 8.08736 8.17230 10 (P3) n - 1
REM
REM Run started: Fri, 11 Sep 2020 00:41:00 +0100 in /lustre/scratch/uccabz1/launch_tmp/launcher_2020-09-10-22-53-34-871827
REM CASTEP 20.1 from code version af48c487+ pr-geom-scf-spinfix Tue Jun 2 15:39:59 2020 +0100
REM Functional Perdew Burke Ernzerhof Relativity Koelling-Harmon Dispersion off
REM Cut-off 340.0000 eV Grid scale 1.7500 Gmax 16.5316 1/A FBSC none
REM MP grid 3 4 4 Offset 0.000 0.000 0.000 No. kpts 24 Spacing 0.07
REM Total runtime: 4271.83 s
REM Overall efficiency: 96.2 %
REM
REM
REM
REM compiler GCC version 4.9.2
REM options -cpp -iprefix /lustre/shared/ucl/apps/gcc/4.9.2/bin/../lib/gcc/x86_64-unknown-linux-gnu/4.9.2/ -mtune=corei7 -march=x86-64 -g -Og
REM COMMAND_LINE
REM seed 218465242 -2115565605 -1518916364 164194902 1224859018 912746488 -1340568943 -1219836193 -582412893 -1916621480 1383160626 166860387
REM
REM S 3|1.8|5|6|7|30:31:32(qc=5)
REM O 2|1.5|12|13|15|20:21(qc=5)
REM Li 1|1.3|8|9|10|10U:20(qc=5)
REM Fe 3|2.2|2.0|1.0|8|9|10|40:41:32(qc=5)
REM 
CELL 1.54180    6.19699    5.39953    5.39953  120.00000   90.00000   90.00000
LATT -1
SFAC Li O  S  Fe 
Li     1 -0.0973670000000  0.0141590000000  0.2760040000000 1.0  -0.01
Li     1 -0.0973670000000  0.2618460000000 -0.0141590000000 1.0  -0.01
Li     1 -0.0973670000000 -0.2760040000000 -0.2618460000000 1.0  -0.01
Li     1 -0.2062420000000  0.3333330000000 -0.3333330000000 1.0  -0.02
O      2 -0.0728330000000  0.3828980000000  0.3654530000000 1.0   0.27
O      2 -0.0728330000000 -0.0174450000000 -0.3828980000000 1.0   0.27
O      2 -0.0728330000000 -0.3654530000000  0.0174450000000 1.0   0.27
S      3  0.4286370000000  0.3333330000000 -0.3333330000000 1.0   0.08
Fe     4 -0.5071840000000 -0.3333330000000  0.3333330000000 1.0   3.60
Fe     4  0.0803040000000 -0.3333330000000  0.3333330000000 1.0   3.64
END
