TITL LFSO-LiFeSO-200909-032312-af2096 0.0125 96.160980 -3.61149683E+003 2.00016 2.34776 8 (Cc) n - 1
REM
REM Run started: Wed, 09 Sep 2020 06:07:59 +0100 in /lustre/scratch/uccabz1/launch_tmp/launcher_2020-09-09-02-23-10-283883
REM CASTEP 20.1 from code version af48c487+ pr-geom-scf-spinfix Tue Jun 2 15:39:59 2020 +0100
REM Functional Perdew Burke Ernzerhof Relativity Koelling-Harmon Dispersion off
REM Cut-off 340.0000 eV Grid scale 1.7500 Gmax 16.5316 1/A FBSC none
REM MP grid 6 6 2 Offset 0.000 0.000 0.000 No. kpts 34 Spacing 0.07
REM Total runtime: 10311.5 s
REM Overall efficiency: 95.8333 %
REM
REM
REM
REM compiler GCC version 4.9.2
REM options -cpp -iprefix /lustre/shared/ucl/apps/gcc/4.9.2/bin/../lib/gcc/x86_64-unknown-linux-gnu/4.9.2/ -mtune=corei7 -march=x86-64 -g -Og
REM COMMAND_LINE
REM seed -1503722443 119147721 1896299786 1443866822 -2119049794 -1896001249 -1923656039 482626831 -864570577 -1885534614 242612918 -943682025
REM
REM S 3|1.8|5|6|7|30:31:32(qc=5)
REM O 2|1.5|12|13|15|20:21(qc=5)
REM Li 1|1.3|8|9|10|10U:20(qc=5)
REM Fe 3|2.2|2.0|1.0|8|9|10|40:41:32(qc=5)
REM 
CELL 1.54180    3.11629    3.11629   12.10856   81.87576  105.19029  122.07241
LATT -1
SFAC Li O  S  Fe 
Li     1  0.0486250000000  0.0900900000000 -0.4519930000000 1.0  -0.01
Li     1  0.4579170000000 -0.0006180000000  0.0480070000000 1.0  -0.01
O      2 -0.2805920000000 -0.3300970000000 -0.0245910000000 1.0   0.05
O      2  0.3055060000000 -0.2439980000000  0.4754090000000 1.0   0.05
S      3  0.1751930000000  0.0062980000000 -0.2341880000000 1.0  -0.09
S      3 -0.2404850000000  0.0906190000000  0.2658120000000 1.0  -0.09
Fe     4 -0.4584270000000  0.4159940000000  0.3727020000000 1.0   1.05
Fe     4 -0.0432920000000  0.3311290000000 -0.1272980000000 1.0   1.05
END
