TITL LFSO-Li2Fe3SO3-200912-142721-bc1c1e 0.0053 123.891560 -4.60811792E+003 -7.99951 8.18287 9 (P2) n - 1
REM
REM Run started: Sat, 12 Sep 2020 16:10:14 +0100 in /lustre/scratch/uccabz1/launch_tmp/launcher_2020-09-12-13-27-19-436471
REM CASTEP 20.1 from code version af48c487+ pr-geom-scf-spinfix Tue Jun 2 15:39:59 2020 +0100
REM Functional Perdew Burke Ernzerhof Relativity Koelling-Harmon Dispersion off
REM Cut-off 340.0000 eV Grid scale 1.7500 Gmax 16.5316 1/A FBSC none
REM MP grid 4 6 3 Offset 0.000 0.000 0.000 No. kpts 18 Spacing 0.07
REM Total runtime: 6391.29 s
REM Overall efficiency: 95.25 %
REM
REM
REM
REM compiler GCC version 4.9.2
REM options -cpp -iprefix /lustre/shared/ucl/apps/gcc/4.9.2/bin/../lib/gcc/x86_64-unknown-linux-gnu/4.9.2/ -mtune=corei7 -march=x86-64 -g -Og
REM COMMAND_LINE
REM seed -1279811659 364303054 -1649084660 -169920798 277093755 -1306324528 755335432 1096555042 -278689058 1880530442 223116618 -2129203462
REM
REM S 3|1.8|5|6|7|30:31:32(qc=5)
REM O 2|1.5|12|13|15|20:21(qc=5)
REM Li 1|1.3|8|9|10|10U:20(qc=5)
REM Fe 3|2.2|2.0|1.0|8|9|10|40:41:32(qc=5)
REM 
CELL 1.54180    4.49796    5.48896    9.72798  148.94650   90.00000   90.00000
LATT -1
SFAC Li O  S  Fe 
Li     1 -0.0707850000000  0.1255920000000  0.2610770000000 1.0   0.01
Li     1 -0.0707850000000 -0.1255920000000 -0.2610770000000 1.0   0.01
O      2 -0.1101890000000  0.2581140000000 -0.4777540000000 1.0  -0.16
O      2 -0.1101890000000 -0.2581140000000  0.4777540000000 1.0  -0.16
O      2  0.0486600000000 -0.5000000000000  0.0000000000000 1.0  -0.15
S      3  0.3488270000000  0.0000000000000  0.0000000000000 1.0  -0.09
Fe     4  0.0784160000000 -0.6299280000000 -0.2474730000000 1.0  -2.01
Fe     4  0.0784160000000  0.6299280000000  0.2474730000000 1.0  -2.01
Fe     4 -0.4561330000000  0.0000000000000 -0.5000000000000 1.0  -3.46
END
