TITL LFSO-Li4Fe3SO4-200928-034956-ddb5e1 -0.0345 283.293214 -1.08897150E+004 -21.2283 21.5604 24 (P2) n - 1
REM
REM Run started: Mon, 28 Sep 2020 21:18:39 +0100 in /scratch/scratch/uccabz1/launch_tmp/launcher_2020-09-28-02-49-55-182674
REM CASTEP 19.11| from code version Version unavailable
REM Functional Perdew Burke Ernzerhof Relativity Koelling-Harmon Dispersion off
REM Cut-off 340.0000 eV Grid scale 1.7500 Gmax 16.5316 1/A FBSC none
REM MP grid 3 3 2 Offset 0.000 0.000 0.000 No. kpts 5 Spacing 0.07
REM Total runtime: 63064.6 s
REM Overall efficiency: 76.3846 %
REM
REM
REM
REM compiler GCC version 4.9.2
REM options -cpp -iprefix /scratch/UCL/applications/gcc/4.9.2/bin/../lib/gcc/x86_64-unknown-linux-gnu/4.9.2/ -mtune=corei7 -march=x86-64 -g -O2
REM COMMAND_LINE
REM seed -1632574143 -133098652 -1234912858 1322407185 591726432 -302778709 1294246911 -261289627 -1981966369 -776895024 -850158095 1406790190
REM
REM S 3|1.8|5|6|7|30:31:32(qc=5)
REM O 2|1.5|12|13|15|20:21(qc=5)
REM Li 1|1.3|8|9|10|10U:20(qc=5)
REM Fe 3|2.2|2.0|1.0|8|9|10|40:41:32(qc=5)
REM 
CELL 1.54180    6.12473    7.89868    7.41436   90.00000   90.00000  127.83257
LATT -1
SFAC Li O  S  Fe 
Li     1 -0.2397170000000 -0.5500040000000 -0.4389460000000 1.0  -0.03
Li     1  0.2397170000000  0.5500040000000 -0.4389460000000 1.0  -0.03
Li     1  0.2588730000000  0.1160390000000  0.0384800000000 1.0   0.01
Li     1 -0.2588730000000 -0.1160390000000  0.0384800000000 1.0   0.01
Li     1 -0.3103700000000  0.1944170000000  0.3140240000000 1.0   0.01
Li     1  0.3103700000000 -0.1944170000000  0.3140240000000 1.0   0.01
Li     1  0.2393130000000 -0.2459070000000 -0.1891900000000 1.0   0.13
Li     1 -0.2393130000000  0.2459070000000 -0.1891900000000 1.0   0.13
O      2  0.4801630000000 -0.3084940000000 -0.2210010000000 1.0  -0.23
O      2 -0.4801630000000  0.3084940000000 -0.2210010000000 1.0  -0.23
O      2 -0.0658020000000  0.1408170000000 -0.0970880000000 1.0  -0.30
O      2  0.0658020000000 -0.1408170000000 -0.0970880000000 1.0  -0.30
O      2 -0.1064800000000  0.2524980000000 -0.4459300000000 1.0  -0.17
O      2  0.1064800000000 -0.2524980000000 -0.4459300000000 1.0  -0.17
O      2 -0.2833880000000 -0.0769010000000  0.2997290000000 1.0  -0.24
O      2  0.2833880000000  0.0769010000000  0.2997290000000 1.0  -0.24
S      3 -0.2255420000000 -0.4679250000000  0.2217080000000 1.0  -0.14
S      3  0.2255420000000  0.4679250000000  0.2217080000000 1.0  -0.14
Fe     4  0.2096910000000  0.0211720000000 -0.3340090000000 1.0  -3.43
Fe     4 -0.2096910000000 -0.0211720000000 -0.3340090000000 1.0  -3.43
Fe     4 -0.0925410000000 -0.1792590000000  0.4000100000000 1.0  -2.79
Fe     4  0.0925410000000  0.1792590000000  0.4000100000000 1.0  -2.79
Fe     4  0.2484450000000  0.4333680000000 -0.0786580000000 1.0  -3.46
Fe     4 -0.2484450000000 -0.4333680000000 -0.0786580000000 1.0  -3.46
END
