TITL LFSO-Li6FeSO3-200909-202742-3b5ee6 0.1249 437.438611 -7.35663011E+003 8.23510 8.36380 22 (P3) n - 1
REM
REM Run started: Thu, 10 Sep 2020 07:55:46 +0100 in /lustre/scratch/uccabz1/launch_tmp/launcher_2020-09-09-19-27-41-298140
REM CASTEP 20.1 from code version af48c487+ pr-geom-scf-spinfix Tue Jun 2 15:39:59 2020 +0100
REM Functional Perdew Burke Ernzerhof Relativity Koelling-Harmon Dispersion off
REM Cut-off 340.0000 eV Grid scale 1.7500 Gmax 16.5316 1/A FBSC none
REM MP grid 3 2 2 Offset 0.000 0.000 0.000 No. kpts 6 Spacing 0.07
REM Total runtime: 47977.5 s
REM Overall efficiency: 98.6667 %
REM
REM
REM
REM compiler GCC version 4.9.2
REM options -cpp -iprefix /lustre/shared/ucl/apps/gcc/4.9.2/bin/../lib/gcc/x86_64-unknown-linux-gnu/4.9.2/ -mtune=corei7 -march=x86-64 -g -Og
REM COMMAND_LINE
REM seed 758498948 316710573 -1436214478 1121980319 67959918 2115334284 1455652563 1591778569 1013505493 1773014554 1507760087 863387867
REM
REM S 3|1.8|5|6|7|30:31:32(qc=5)
REM O 2|1.5|12|13|15|20:21(qc=5)
REM Li 1|1.3|8|9|10|10U:20(qc=5)
REM Fe 3|2.2|2.0|1.0|8|9|10|40:41:32(qc=5)
REM 
CELL 1.54180    6.79189    8.62378    8.62378  120.00000   90.00000   90.00000
LATT -1
SFAC Li O  S  Fe 
Li     1 -0.2858530000000  0.2311770000000  0.0190150000000 1.0   0.00
Li     1 -0.2858530000000 -0.0190150000000  0.2121620000000 1.0   0.00
Li     1 -0.2858530000000 -0.2121620000000 -0.2311770000000 1.0   0.00
Li     1 -0.0269110000000  0.0607660000000 -0.5386350000000 1.0  -0.02
Li     1 -0.0269110000000  0.5386350000000 -0.4005990000000 1.0  -0.02
Li     1 -0.0269110000000  0.4005990000000 -0.0607660000000 1.0  -0.02
Li     1  0.0566990000000 -0.2445530000000  0.0287260000000 1.0  -0.00
Li     1  0.0566990000000 -0.0287260000000 -0.2732790000000 1.0  -0.00
Li     1  0.0566990000000  0.2732790000000  0.2445530000000 1.0  -0.00
Li     1 -0.3342480000000  0.3852990000000  0.5211820000000 1.0  -0.00
Li     1 -0.3342480000000 -0.5211820000000 -0.1358830000000 1.0  -0.00
Li     1 -0.3342480000000  0.1358830000000 -0.3852990000000 1.0  -0.00
O      2 -0.2439130000000  0.1596620000000 -0.5727550000000 1.0   0.01
O      2 -0.2439130000000  0.5727550000000 -0.2675830000000 1.0   0.01
O      2 -0.2439130000000  0.2675830000000 -0.1596620000000 1.0   0.01
O      2  0.0813550000000  0.5096080000000  0.3919390000000 1.0   0.27
O      2  0.0813550000000 -0.3919390000000  0.1176680000000 1.0   0.27
O      2  0.0813550000000 -0.1176680000000 -0.5096080000000 1.0   0.27
S      3 -0.4169230000000 -0.3333330000000  0.3333330000000 1.0   0.22
S      3 -0.0598730000000  0.0000000000000 -0.0000000000000 1.0   0.00
Fe     4  0.2504370000000 -0.3333330000000  0.3333330000000 1.0   3.69
Fe     4 -0.0903930000000 -0.3333330000000  0.3333330000000 1.0   3.59
END
