TITL LFSO-Li3FeSO2-200911-155626-c717df -0.0263 284.301394 -5.28531684E+003 8.00000 8.16595 14 (Cm) n - 1
REM
REM Run started: Fri, 11 Sep 2020 22:05:55 +0100 in /lustre/scratch/uccabz1/launch_tmp/launcher_2020-09-11-14-56-24-510226
REM CASTEP 20.1 from code version af48c487+ pr-geom-scf-spinfix Tue Jun 2 15:39:59 2020 +0100
REM Functional Perdew Burke Ernzerhof Relativity Koelling-Harmon Dispersion off
REM Cut-off 340.0000 eV Grid scale 1.7500 Gmax 16.5316 1/A FBSC none
REM MP grid 3 3 3 Offset 0.000 0.000 0.000 No. kpts 10 Spacing 0.07
REM Total runtime: 23559.5 s
REM Overall efficiency: 74.7692 %
REM
REM
REM
REM compiler GCC version 4.9.2
REM options -cpp -iprefix /lustre/shared/ucl/apps/gcc/4.9.2/bin/../lib/gcc/x86_64-unknown-linux-gnu/4.9.2/ -mtune=corei7 -march=x86-64 -g -Og
REM COMMAND_LINE
REM seed 1067332503 947057748 -1049976513 -1204848829 431440026 -1759370327 295636179 551739692 -325496429 -1748313024 -543765744 -1284097774
REM
REM S 3|1.8|5|6|7|30:31:32(qc=5)
REM O 2|1.5|12|13|15|20:21(qc=5)
REM Li 1|1.3|8|9|10|10U:20(qc=5)
REM Fe 3|2.2|2.0|1.0|8|9|10|40:41:32(qc=5)
REM 
CELL 1.54180    6.29150    7.55357    7.55357   75.00610   62.98812   62.98812
LATT -1
SFAC Li O  S  Fe 
Li     1 -0.2196050000000  0.1160390000000  0.5683910000000 1.0   0.01
Li     1 -0.2196050000000  0.5683910000000  0.1160390000000 1.0   0.01
Li     1  0.5565450000000 -0.6693490000000 -0.1013700000000 1.0   0.05
Li     1  0.5565450000000 -0.1013700000000 -0.6693490000000 1.0   0.05
Li     1  0.2430800000000  0.0981950000000 -0.3277300000000 1.0   0.00
Li     1  0.2430800000000 -0.3277300000000  0.0981950000000 1.0   0.00
O      2 -0.4031360000000 -0.0296140000000 -0.4646490000000 1.0   0.28
O      2 -0.4031360000000 -0.4646490000000 -0.0296140000000 1.0   0.28
O      2 -0.1101380000000  0.2449720000000 -0.3141160000000 1.0   0.28
O      2 -0.1101380000000 -0.3141160000000  0.2449720000000 1.0   0.28
S      3  0.2209730000000 -0.1797950000000  0.3860610000000 1.0   0.28
S      3  0.2209730000000  0.3860610000000 -0.1797950000000 1.0   0.28
Fe     4 -0.1081150000000 -0.2432660000000 -0.5456140000000 1.0   3.08
Fe     4 -0.1081150000000 -0.5456140000000 -0.2432660000000 1.0   3.08
END
