TITL LFSO-Li2Fe4S4O-200911-214411-79a994 -0.9644 411.977473 -1.10132346E+004 -17.7145 19.1994 22 (Cc) n - 1
REM
REM Run started: Sun, 13 Sep 2020 19:09:00 +0100 in /lustre/scratch/uccabz1/launch_tmp/launcher_2020-09-13-17-12-52-196897
REM CASTEP 20.1 from code version af48c487+ pr-geom-scf-spinfix Tue Jun 2 15:39:59 2020 +0100
REM Functional Perdew Burke Ernzerhof Relativity Koelling-Harmon Dispersion off
REM Cut-off 340.0000 eV Grid scale 1.7500 Gmax 16.5316 1/A FBSC none
REM MP grid 3 2 2 Offset 0.000 0.000 0.000 No. kpts 6 Spacing 0.07
REM Total runtime: 163728 s
REM Overall efficiency: 98.5455 %
REM
REM
REM
REM compiler GCC version 4.9.2
REM options -cpp -iprefix /lustre/shared/ucl/apps/gcc/4.9.2/bin/../lib/gcc/x86_64-unknown-linux-gnu/4.9.2/ -mtune=corei7 -march=x86-64 -g -Og
REM COMMAND_LINE
REM seed -970223994 -723586290 1816021368 -1907590881 -1181468677 -1546560931 -1370345013 350883992 -761889363 -498868896 -330734280 1963274269
REM
REM S 3|1.8|5|6|7|30:31:32(qc=5)
REM O 2|1.5|12|13|15|20:21(qc=5)
REM Li 1|1.3|8|9|10|10U:20(qc=5)
REM Fe 3|2.2|2.0|1.0|8|9|10|40:41:32(qc=5)
REM 
CELL 1.54180    5.10270    9.22065    9.89651  117.76547   90.73391   90.00000
LATT -1
SFAC Li O  S  Fe 
Li     1  0.3129620000000 -0.0567160000000  0.4386800000000 1.0   0.02
Li     1 -0.1870380000000 -0.5046040000000  0.4386800000000 1.0   0.02
Li     1 -0.4255420000000  0.1888970000000  0.1671850000000 1.0   0.01
Li     1  0.0744580000000 -0.0217130000000  0.1671850000000 1.0   0.01
O      2 -0.3699840000000 -0.4307430000000  0.3195650000000 1.0  -0.28
O      2  0.1300160000000 -0.2496920000000  0.3195650000000 1.0  -0.28
S      3  0.0967610000000  0.2735790000000  0.2393620000000 1.0  -0.10
S      3 -0.4032390000000 -0.0342160000000  0.2393620000000 1.0  -0.10
S      3  0.0880990000000  0.4350360000000 -0.3360880000000 1.0   0.01
S      3  0.5880990000000  0.2288750000000 -0.3360880000000 1.0   0.01
S      3 -0.3963830000000 -0.0091590000000 -0.3589330000000 1.0  -0.04
S      3  0.1036170000000 -0.3497740000000 -0.3589330000000 1.0  -0.04
S      3  0.0895220000000  0.2122270000000 -0.1826770000000 1.0   0.07
S      3  0.5895220000000 -0.3949040000000 -0.1826770000000 1.0   0.07
Fe     4  0.1004920000000 -0.3808370000000  0.0932650000000 1.0  -2.98
Fe     4 -0.3995080000000  0.4741030000000  0.0932650000000 1.0  -2.98
Fe     4  0.0859710000000  0.3548650000000  0.0569750000000 1.0  -2.34
Fe     4 -0.4140290000000 -0.2978900000000  0.0569750000000 1.0  -2.34
Fe     4 -0.1568400000000 -0.5755170000000 -0.1561100000000 1.0   0.05
Fe     4  0.3431600000000  0.4194080000000 -0.1561100000000 1.0   0.05
Fe     4 -0.2454450000000 -0.2318200000000  0.3119800000000 1.0  -3.28
Fe     4  0.2545550000000  0.5438000000000  0.3119800000000 1.0  -3.28
END
