TITL LFSO-Li2Fe2SO2-200912-235931-13b7ef 0.0043 266.050515 -6.61262653E+003 -12.0415 12.3566 14 (Pm) n - 1
REM
REM Run started: Sun, 13 Sep 2020 12:08:57 +0100 in /lustre/scratch/uccabz1/launch_tmp/launcher_2020-09-12-22-59-29-451645
REM CASTEP 20.1 from code version af48c487+ pr-geom-scf-spinfix Tue Jun 2 15:39:59 2020 +0100
REM Functional Perdew Burke Ernzerhof Relativity Koelling-Harmon Dispersion off
REM Cut-off 340.0000 eV Grid scale 1.7500 Gmax 16.5316 1/A FBSC none
REM MP grid 2 3 4 Offset 0.000 0.000 0.000 No. kpts 6 Spacing 0.07
REM Total runtime: 48183 s
REM Overall efficiency: 75.3333 %
REM
REM
REM
REM compiler GCC version 4.9.2
REM options -cpp -iprefix /lustre/shared/ucl/apps/gcc/4.9.2/bin/../lib/gcc/x86_64-unknown-linux-gnu/4.9.2/ -mtune=corei7 -march=x86-64 -g -Og
REM COMMAND_LINE
REM seed 1529107962 1562046963 671481320 -1296155378 -1564470841 1104659081 -1671541087 -167100249 -1641299382 -201047481 2089118421 -317500674
REM
REM S 3|1.8|5|6|7|30:31:32(qc=5)
REM O 2|1.5|12|13|15|20:21(qc=5)
REM Li 1|1.3|8|9|10|10U:20(qc=5)
REM Fe 3|2.2|2.0|1.0|8|9|10|40:41:32(qc=5)
REM 
CELL 1.54180    9.21241    6.11856    5.50351   59.05176   90.00000   90.00000
LATT -1
SFAC Li O  S  Fe 
Li     1  0.2065580000000  0.1907630000000  0.1160410000000 1.0   0.03
Li     1 -0.2065580000000  0.1907630000000  0.1160410000000 1.0   0.03
Li     1  0.3293850000000 -0.4234820000000  0.6865500000000 1.0  -0.00
Li     1 -0.3293850000000 -0.4234820000000  0.6865500000000 1.0  -0.00
O      2  0.3178780000000  0.2252020000000 -0.1898890000000 1.0  -0.18
O      2 -0.3178780000000  0.2252020000000 -0.1898890000000 1.0  -0.18
O      2 -0.3224900000000 -0.0759830000000  0.4028660000000 1.0  -0.22
O      2  0.3224900000000 -0.0759830000000  0.4028660000000 1.0  -0.22
S      3 -0.2826420000000  0.5156310000000  0.1751980000000 1.0  -0.11
S      3  0.2826420000000  0.5156310000000  0.1751980000000 1.0  -0.11
Fe     4 -0.3608320000000  0.1265370000000 -0.4454300000000 1.0  -2.71
Fe     4  0.3608320000000  0.1265370000000 -0.4454300000000 1.0  -2.71
Fe     4  0.3667970000000 -0.1084740000000  0.0744810000000 1.0  -2.82
Fe     4 -0.3667970000000 -0.1084740000000  0.0744810000000 1.0  -2.82
END
