TITL LFSO-Li4Fe3S2O3-200928-142623-1012b7 0.0517 310.637093 -1.06266866E+004 19.4279 20.0158 24 (P21) n - 1
REM
REM Run started: Tue, 29 Sep 2020 00:54:18 +0100 in /lustre/scratch/uccabz1/launch_tmp/launcher_2020-09-28-13-26-21-826008
REM CASTEP 20.1 from code version af48c487+ pr-geom-scf-spinfix Tue Jun 2 15:39:59 2020 +0100
REM Functional Perdew Burke Ernzerhof Relativity Koelling-Harmon Dispersion off
REM Cut-off 340.0000 eV Grid scale 1.7500 Gmax 16.5316 1/A FBSC none
REM MP grid 5 2 2 Offset 0.000 0.000 0.000 No. kpts 5 Spacing 0.07
REM Total runtime: 37822.7 s
REM Overall efficiency: 77.2 %
REM
REM
REM
REM compiler GCC version 4.9.2
REM options -cpp -iprefix /lustre/shared/ucl/apps/gcc/4.9.2/bin/../lib/gcc/x86_64-unknown-linux-gnu/4.9.2/ -mtune=corei7 -march=x86-64 -g -Og
REM COMMAND_LINE
REM seed -665047164 -86128504 -1637107322 616072589 1254017087 -77361859 1682529340 -1892565078 -1858774302 -1503284024 186970056 1148893519
REM
REM S 3|1.8|5|6|7|30:31:32(qc=5)
REM O 2|1.5|12|13|15|20:21(qc=5)
REM Li 1|1.3|8|9|10|10U:20(qc=5)
REM Fe 3|2.2|2.0|1.0|8|9|10|40:41:32(qc=5)
REM 
CELL 1.54180    3.04286    7.84127   13.27251   90.00000   90.00000  101.21155
LATT -1
SFAC Li O  S  Fe 
Li     1 -0.2009540000000  0.2521200000000  0.2280950000000 1.0   0.01
Li     1  0.2009540000000 -0.2521200000000 -0.2719050000000 1.0   0.01
Li     1  0.1385050000000 -0.0942340000000  0.2139860000000 1.0   0.02
Li     1 -0.1385050000000  0.0942340000000 -0.2860140000000 1.0   0.02
Li     1 -0.3504830000000 -0.3455760000000 -0.1323250000000 1.0  -0.04
Li     1  0.3504830000000  0.3455760000000  0.3676750000000 1.0  -0.04
Li     1 -0.5375040000000  0.5653120000000  0.2295680000000 1.0  -0.01
Li     1  0.5375040000000 -0.5653120000000 -0.2704320000000 1.0  -0.01
O      2  0.2424200000000  0.1291640000000  0.2867630000000 1.0   0.25
O      2 -0.2424200000000 -0.1291640000000 -0.2132370000000 1.0   0.25
O      2 -0.0848570000000  0.4694310000000  0.3025120000000 1.0   0.19
O      2  0.0848570000000 -0.4694310000000 -0.1974880000000 1.0   0.19
O      2  0.5842970000000 -0.2042780000000  0.2830670000000 1.0   0.33
O      2 -0.5842970000000  0.2042780000000 -0.2169330000000 1.0   0.33
S      3 -0.2480400000000  0.1447010000000 -0.4715790000000 1.0   0.04
S      3  0.2480400000000 -0.1447010000000  0.0284210000000 1.0   0.04
S      3  0.5311000000000 -0.2972710000000 -0.4725720000000 1.0   0.05
S      3 -0.5311000000000  0.2972710000000  0.0274280000000 1.0   0.05
Fe     4  0.6925820000000  0.0051410000000  0.3660660000000 1.0   3.43
Fe     4 -0.6925820000000 -0.0051410000000 -0.1339340000000 1.0   3.43
Fe     4  0.1444500000000 -0.0698900000000 -0.4908760000000 1.0   1.99
Fe     4 -0.1444500000000  0.0698900000000  0.0091240000000 1.0   1.99
Fe     4 -0.0255820000000  0.3178170000000 -0.1180570000000 1.0   3.46
Fe     4  0.0255820000000 -0.3178170000000  0.3819430000000 1.0   3.46
END
