TITL LFSO-Li4FeSO2-200910-073416-eb991e -0.0069 89.386626 -2.83855806E+003 3.49490 3.68066 8 (P2/m) n - 1
REM
REM Run started: Thu, 10 Sep 2020 08:46:39 +0100 in /lustre/scratch/uccabz1/launch_tmp/launcher_2020-09-10-06-34-14-262337
REM CASTEP 20.1 from code version af48c487+ pr-geom-scf-spinfix Tue Jun 2 15:39:59 2020 +0100
REM Functional Perdew Burke Ernzerhof Relativity Koelling-Harmon Dispersion off
REM Cut-off 340.0000 eV Grid scale 1.7500 Gmax 16.5316 1/A FBSC none
REM MP grid 8 4 2 Offset 0.000 0.000 0.000 No. kpts 16 Spacing 0.07
REM Total runtime: 4715.39 s
REM Overall efficiency: 85.1818 %
REM
REM
REM
REM compiler GCC version 4.9.2
REM options -cpp -iprefix /lustre/shared/ucl/apps/gcc/4.9.2/bin/../lib/gcc/x86_64-unknown-linux-gnu/4.9.2/ -mtune=corei7 -march=x86-64 -g -Og
REM COMMAND_LINE
REM seed -479654749 1535384399 -2124969986 891460437 1078924606 1672484691 1464179113 2089722052 -1568783902 1675455042 1833262615 341213587
REM
REM S 3|1.8|5|6|7|30:31:32(qc=5)
REM O 2|1.5|12|13|15|20:21(qc=5)
REM Li 1|1.3|8|9|10|10U:20(qc=5)
REM Fe 3|2.2|2.0|1.0|8|9|10|40:41:32(qc=5)
REM 
CELL 1.54180    2.90484    3.89791   12.07029   90.00000  139.15348   90.00000
LATT -1
SFAC Li O  S  Fe 
Li     1 -0.6426860000000 -0.2349090000000  0.2749350000000 1.0  -0.03
Li     1  0.6426860000000 -0.2349090000000 -0.2749350000000 1.0  -0.03
Li     1  0.6426860000000  0.2349090000000 -0.2749350000000 1.0  -0.03
Li     1 -0.6426860000000  0.2349090000000  0.2749350000000 1.0  -0.03
O      2  0.4725420000000  0.0000000000000 -0.1692840000000 1.0   0.11
O      2 -0.4725420000000  0.0000000000000  0.1692840000000 1.0   0.11
S      3 -0.5000000000000  0.5000000000000 -0.5000000000000 1.0   0.02
Fe     4  0.0000000000000  0.5000000000000  0.0000000000000 1.0   3.39
END
