TITL LFSO-Li4Fe3S3O2-200927-041112-a0f4e0 -0.1087 592.897430 -1.03512093E+004 22.1852 22.9171 24 (C2/c) n - 1
REM
REM Run started: Tue, 29 Sep 2020 09:21:15 +0100 in /lustre/scratch/uccabz1/launch_tmp/launcher_2020-09-29-05-15-54-760803
REM CASTEP 20.1 from code version af48c487+ pr-geom-scf-spinfix Tue Jun 2 15:39:59 2020 +0100
REM Functional Perdew Burke Ernzerhof Relativity Koelling-Harmon Dispersion off
REM Cut-off 340.0000 eV Grid scale 1.7500 Gmax 16.5316 1/A FBSC none
REM MP grid 3 3 3 Offset 0.000 0.000 0.000 No. kpts 10 Spacing 0.07
REM Total runtime: 132166 s
REM Overall efficiency: 70.2308 %
REM
REM
REM
REM compiler GCC version 4.9.2
REM options -cpp -iprefix /lustre/shared/ucl/apps/gcc/4.9.2/bin/../lib/gcc/x86_64-unknown-linux-gnu/4.9.2/ -mtune=corei7 -march=x86-64 -g -Og
REM COMMAND_LINE
REM seed -1020563763 11958383 -1972707535 1647166012 -1867775227 1003336614 -1696932794 -1120112637 -1409428530 1027228622 724603269 -1724651726
REM
REM S 3|1.8|5|6|7|30:31:32(qc=5)
REM O 2|1.5|12|13|15|20:21(qc=5)
REM Li 1|1.3|8|9|10|10U:20(qc=5)
REM Fe 3|2.2|2.0|1.0|8|9|10|40:41:32(qc=5)
REM 
CELL 1.54180    6.98583   12.11099   12.11099  144.42174   91.82879   91.82879
LATT -1
SFAC Li O  S  Fe 
Li     1  0.1175840000000 -0.5202020000000  0.1137930000000 1.0  -0.03
Li     1  0.3824160000000 -0.1137930000000  0.5202020000000 1.0  -0.03
Li     1 -0.1175840000000  0.5202020000000 -0.1137930000000 1.0  -0.03
Li     1 -0.3824160000000  0.1137930000000 -0.5202020000000 1.0  -0.03
Li     1 -0.0880170000000 -0.0858670000000  0.1727290000000 1.0  -0.04
Li     1 -0.4119830000000 -0.1727290000000  0.0858670000000 1.0  -0.04
Li     1  0.0880170000000  0.0858670000000 -0.1727290000000 1.0  -0.04
Li     1  0.4119830000000  0.1727290000000 -0.0858670000000 1.0  -0.04
O      2 -0.2158090000000 -0.3105780000000 -0.0864010000000 1.0   0.27
O      2 -0.2841910000000  0.0864010000000  0.3105780000000 1.0   0.27
O      2  0.2158090000000  0.3105780000000  0.0864010000000 1.0   0.27
O      2  0.2841910000000 -0.0864010000000 -0.3105780000000 1.0   0.27
S      3 -0.4797770000000  0.2048570000000 -0.2561430000000 1.0   0.13
S      3 -0.0202230000000  0.2561430000000 -0.2048570000000 1.0   0.13
S      3  0.4797770000000 -0.2048570000000  0.2561430000000 1.0   0.13
S      3  0.0202230000000 -0.2561430000000  0.2048570000000 1.0   0.13
S      3  0.0000000000000  0.5000000000000 -0.5000000000000 1.0   0.24
S      3  0.5000000000000  0.5000000000000 -0.5000000000000 1.0   0.24
Fe     4  0.2317440000000  0.3871860000000  0.2900800000000 1.0   3.41
Fe     4  0.2682560000000 -0.2900800000000 -0.3871860000000 1.0   3.41
Fe     4 -0.2317440000000 -0.3871860000000 -0.2900800000000 1.0   3.41
Fe     4 -0.2682560000000  0.2900800000000  0.3871860000000 1.0   3.41
Fe     4  0.0000000000000  0.0000000000000  0.5000000000000 1.0   3.38
Fe     4  0.5000000000000 -0.5000000000000  0.0000000000000 1.0   3.38
END
