TITL LFSO-Li6FeS2O2-200920-195216-5f4cd3 0.0878 674.618999 -7.09322031E+003 8.00000 8.12319 22 (Pma2) n - 1
REM
REM Run started: Mon, 21 Sep 2020 04:46:17 +0100 in /lustre/scratch/uccabz1/launch_tmp/launcher_2020-09-20-18-52-14-416942
REM CASTEP 20.1 from code version af48c487+ pr-geom-scf-spinfix Tue Jun 2 15:39:59 2020 +0100
REM Functional Perdew Burke Ernzerhof Relativity Koelling-Harmon Dispersion off
REM Cut-off 340.0000 eV Grid scale 1.7500 Gmax 16.5316 1/A FBSC none
REM MP grid 3 1 4 Offset 0.000 0.000 0.000 No. kpts 4 Spacing 0.07
REM Total runtime: 38723.6 s
REM Overall efficiency: 96 %
REM
REM
REM
REM compiler GCC version 4.9.2
REM options -cpp -iprefix /lustre/shared/ucl/apps/gcc/4.9.2/bin/../lib/gcc/x86_64-unknown-linux-gnu/4.9.2/ -mtune=corei7 -march=x86-64 -g -Og
REM COMMAND_LINE
REM seed 528602204 295824842 -1068087243 1308545837 -701485112 -1256648809 -1125809348 1961491698 1680705651 543559413 -432668311 -1222746885
REM
REM S 3|1.8|5|6|7|30:31:32(qc=5)
REM O 2|1.5|12|13|15|20:21(qc=5)
REM Li 1|1.3|8|9|10|10U:20(qc=5)
REM Fe 3|2.2|2.0|1.0|8|9|10|40:41:32(qc=5)
REM 
CELL 1.54180    5.89880   28.49073    4.01413   90.00000   90.00000   90.00000
LATT -1
SFAC Li O  S  Fe 
Li     1  0.1121210000000 -0.4440400000000 -0.2726450000000 1.0   0.01
Li     1  0.1121210000000  0.4440400000000  0.2726450000000 1.0   0.01
Li     1  0.1121210000000  0.0559600000000  0.2726450000000 1.0   0.01
Li     1  0.1121210000000 -0.0559600000000 -0.2726450000000 1.0   0.01
Li     1  0.3548250000000 -0.0307030000000  0.2206370000000 1.0  -0.01
Li     1  0.3548250000000  0.0307030000000 -0.2206370000000 1.0  -0.01
Li     1  0.3548250000000  0.4692970000000 -0.2206370000000 1.0  -0.01
Li     1  0.3548250000000 -0.4692970000000  0.2206370000000 1.0  -0.01
Li     1 -0.3310550000000  0.0786230000000  0.2247660000000 1.0   0.01
Li     1 -0.3310550000000 -0.0786230000000 -0.2247660000000 1.0   0.01
Li     1 -0.3310550000000 -0.4213770000000 -0.2247660000000 1.0   0.01
Li     1 -0.3310550000000  0.4213770000000  0.2247660000000 1.0   0.01
O      2  0.4200290000000 -0.4626340000000 -0.2765280000000 1.0   0.13
O      2  0.4200290000000  0.4626340000000  0.2765280000000 1.0   0.13
O      2  0.4200290000000  0.0373660000000  0.2765280000000 1.0   0.13
O      2  0.4200290000000 -0.0373660000000 -0.2765280000000 1.0   0.13
S      3 -0.1084740000000  0.4380450000000 -0.2586990000000 1.0   0.10
S      3 -0.1084740000000 -0.4380450000000  0.2586990000000 1.0   0.10
S      3 -0.1084740000000 -0.0619550000000  0.2586990000000 1.0   0.10
S      3 -0.1084740000000  0.0619550000000 -0.2586990000000 1.0   0.10
Fe     4 -0.3226820000000 -0.0000000000000 -0.5000000000000 1.0   3.54
Fe     4 -0.3226820000000  0.5000000000000  0.5000000000000 1.0   3.54
END
