TITL LFSO-Li2Fe2SO3-200913-062013-6a1a7c -0.0435 340.727040 -1.12312264E+004 -4.03886 17.5390 24 (I222) n - 1
REM
REM Run started: Sun, 13 Sep 2020 18:28:54 +0100 in /lustre/scratch/uccabz1/launch_tmp/launcher_2020-09-13-13-41-43-644913
REM CASTEP 20.1 from code version af48c487+ pr-geom-scf-spinfix Tue Jun 2 15:39:59 2020 +0100
REM Functional Perdew Burke Ernzerhof Relativity Koelling-Harmon Dispersion off
REM Cut-off 340.0000 eV Grid scale 1.7500 Gmax 16.5316 1/A FBSC none
REM MP grid 3 3 3 Offset 0.000 0.000 0.000 No. kpts 8 Spacing 0.07
REM Total runtime: 48599.6 s
REM Overall efficiency: 98.4 %
REM
REM
REM
REM compiler GCC version 4.9.2
REM options -cpp -iprefix /lustre/shared/ucl/apps/gcc/4.9.2/bin/../lib/gcc/x86_64-unknown-linux-gnu/4.9.2/ -mtune=corei7 -march=x86-64 -g -Og
REM COMMAND_LINE
REM seed 201221985 -1151411977 199458434 2014193286 -1388559283 1592677673 -1099221601 127444306 1238490435 398213878 712118689 -1016579996
REM
REM S 3|1.8|5|6|7|30:31:32(qc=5)
REM O 2|1.5|12|13|15|20:21(qc=5)
REM Li 1|1.3|8|9|10|10U:20(qc=5)
REM Fe 3|2.2|2.0|1.0|8|9|10|40:41:32(qc=5)
REM 
CELL 1.54180    9.53075    7.87341    7.87341   84.04569   52.75325   52.75325
LATT -1
SFAC Li O  S  Fe 
Li     1  0.4221000000000 -0.2529490000000 -0.3209570000000 1.0   0.01
Li     1 -0.4221000000000  0.3209570000000  0.2529490000000 1.0   0.01
Li     1  0.1518060000000 -0.3209570000000 -0.2529490000000 1.0   0.01
Li     1 -0.1518060000000  0.2529490000000  0.3209570000000 1.0   0.01
Li     1 -0.0000000000000  0.2332950000000 -0.2332950000000 1.0  -0.03
Li     1 -0.0000000000000 -0.2332950000000  0.2332950000000 1.0  -0.03
O      2  0.1549910000000  0.1147530000000  0.2282640000000 1.0  -0.03
O      2 -0.1549910000000 -0.2282640000000 -0.1147530000000 1.0  -0.03
O      2 -0.4980070000000  0.2282640000000  0.1147530000000 1.0  -0.03
O      2  0.4980070000000 -0.1147530000000 -0.2282640000000 1.0  -0.03
O      2  0.0587670000000 -0.5145790000000  0.1909140000000 1.0   0.08
O      2 -0.0587670000000 -0.1909140000000  0.5145790000000 1.0   0.08
O      2  0.2648980000000  0.1909140000000 -0.5145790000000 1.0   0.08
O      2 -0.2648980000000  0.5145790000000 -0.1909140000000 1.0   0.08
O      2  0.5000000000000 -0.5000000000000 -0.5000000000000 1.0  -0.01
S      3  0.5000000000000  0.2864160000000 -0.2864160000000 1.0  -0.12
S      3 -0.5000000000000 -0.2864160000000  0.2864160000000 1.0  -0.12
S      3 -0.0000000000000  0.0000000000000  0.0000000000000 1.0  -0.03
Fe     4 -0.2951480000000  0.0498530000000 -0.1953720000000 1.0  -2.50
Fe     4  0.2951480000000  0.1953720000000 -0.0498530000000 1.0  -2.50
Fe     4  0.4406680000000 -0.1953720000000  0.0498530000000 1.0  -2.50
Fe     4 -0.4406680000000 -0.0498530000000  0.1953720000000 1.0  -2.50
Fe     4 -0.1809920000000 -0.3190080000000 -0.3190080000000 1.0   3.02
Fe     4  0.1809920000000  0.3190080000000  0.3190080000000 1.0   3.02
END
