TITL LFSO-Li2Fe2S3O-200913-063535-125cb7 0.5319 445.781302 -1.04269703E+004 15.1198 16.1247 24 (Cm) n - 1
REM
REM Run started: Mon, 14 Sep 2020 10:26:26 +0100 in /lustre/scratch/uccabz1/launch_tmp/launcher_2020-09-14-07-42-44-475252
REM CASTEP 20.1 from code version af48c487+ pr-geom-scf-spinfix Tue Jun 2 15:39:59 2020 +0100
REM Functional Perdew Burke Ernzerhof Relativity Koelling-Harmon Dispersion off
REM Cut-off 340.0000 eV Grid scale 1.7500 Gmax 16.5316 1/A FBSC none
REM MP grid 5 2 2 Offset 0.000 0.000 0.000 No. kpts 8 Spacing 0.07
REM Total runtime: 78394.8 s
REM Overall efficiency: 98.7778 %
REM
REM
REM
REM compiler GCC version 4.9.2
REM options -cpp -iprefix /lustre/shared/ucl/apps/gcc/4.9.2/bin/../lib/gcc/x86_64-unknown-linux-gnu/4.9.2/ -mtune=corei7 -march=x86-64 -g -Og
REM COMMAND_LINE
REM seed 1194136113 -1420506244 -197641900 1662088145 1162675390 482481774 -1696136768 -1498592747 1535208 -1002311051 2074721666 2079731418
REM
REM S 3|1.8|5|6|7|30:31:32(qc=5)
REM O 2|1.5|12|13|15|20:21(qc=5)
REM Li 1|1.3|8|9|10|10U:20(qc=5)
REM Fe 3|2.2|2.0|1.0|8|9|10|40:41:32(qc=5)
REM 
CELL 1.54180    3.58315   11.37656   11.37656   83.99239  100.98762  100.98762
LATT -1
SFAC Li O  S  Fe 
Li     1 -0.1212260000000  0.2234100000000 -0.0275270000000 1.0   0.05
Li     1 -0.1212260000000 -0.0275270000000  0.2234100000000 1.0   0.05
Li     1 -0.0311330000000  0.3379180000000 -0.2402760000000 1.0   0.02
Li     1 -0.0311330000000 -0.2402760000000  0.3379180000000 1.0   0.02
Li     1  0.2269820000000 -0.3743700000000  0.1169260000000 1.0  -0.05
Li     1  0.2269820000000  0.1169260000000 -0.3743700000000 1.0  -0.05
O      2  0.1290430000000 -0.5421550000000  0.1730970000000 1.0   0.29
O      2  0.1290430000000  0.1730970000000 -0.5421550000000 1.0   0.29
O      2 -0.4599080000000  0.2557110000000  0.2557110000000 1.0   0.41
S      3  0.4732610000000  0.4537770000000 -0.3215120000000 1.0   0.04
S      3  0.4732610000000 -0.3215120000000  0.4537770000000 1.0   0.04
S      3 -0.5380580000000 -0.0334030000000  0.3593970000000 1.0   0.16
S      3 -0.5380580000000  0.3593970000000 -0.0334030000000 1.0   0.16
S      3  0.1469390000000 -0.1281310000000 -0.3530780000000 1.0   0.13
S      3  0.1469390000000 -0.3530780000000 -0.1281310000000 1.0   0.13
S      3 -0.1705870000000  0.1189940000000 -0.2097640000000 1.0   0.22
S      3 -0.1705870000000 -0.2097640000000  0.1189940000000 1.0   0.22
S      3  0.1756370000000 -0.4789590000000 -0.4789590000000 1.0  -0.05
Fe     4 -0.4260130000000  0.5332080000000 -0.1467580000000 1.0   2.38
Fe     4 -0.4260130000000 -0.1467580000000  0.5332080000000 1.0   2.38
Fe     4 -0.2692170000000 -0.0734100000000 -0.2426340000000 1.0   2.91
Fe     4 -0.2692170000000 -0.2426340000000 -0.0734100000000 1.0   2.91
Fe     4  0.5893860000000  0.4002060000000  0.1691320000000 1.0   3.25
Fe     4  0.5893860000000  0.1691320000000  0.4002060000000 1.0   3.25
END
