TITL LFSO-Li2Fe2SO3-200913-083137-f62d8f -0.0372 207.082054 -7.48709621E+003 -13.4444 13.7832 16 (C2) n - 1
REM
REM Run started: Sun, 13 Sep 2020 12:00:11 +0100 in /lustre/scratch/uccabz1/launch_tmp/launcher_2020-09-13-07-31-35-872304
REM CASTEP 20.1 from code version af48c487+ pr-geom-scf-spinfix Tue Jun 2 15:39:59 2020 +0100
REM Functional Perdew Burke Ernzerhof Relativity Koelling-Harmon Dispersion off
REM Cut-off 340.0000 eV Grid scale 1.7500 Gmax 16.5316 1/A FBSC none
REM MP grid 4 4 2 Offset 0.000 0.000 0.000 No. kpts 10 Spacing 0.07
REM Total runtime: 12976.4 s
REM Overall efficiency: 82.875 %
REM
REM
REM
REM compiler GCC version 4.9.2
REM options -cpp -iprefix /lustre/shared/ucl/apps/gcc/4.9.2/bin/../lib/gcc/x86_64-unknown-linux-gnu/4.9.2/ -mtune=corei7 -march=x86-64 -g -Og
REM COMMAND_LINE
REM seed -1019979524 -1133653225 720021067 -265032780 233096893 584278105 -1102289398 245063125 -1037163433 -304632239 -825677782 -1580901067
REM
REM S 3|1.8|5|6|7|30:31:32(qc=5)
REM O 2|1.5|12|13|15|20:21(qc=5)
REM Li 1|1.3|8|9|10|10U:20(qc=5)
REM Fe 3|2.2|2.0|1.0|8|9|10|40:41:32(qc=5)
REM 
CELL 1.54180    4.56990    4.56990   10.17768   84.96032   84.96032  100.39805
LATT -1
SFAC Li O  S  Fe 
Li     1  0.5461090000000 -0.2070220000000  0.3992200000000 1.0   0.00
Li     1  0.2070220000000 -0.5461090000000 -0.3992200000000 1.0   0.00
Li     1 -0.3799810000000 -0.4230530000000 -0.2294990000000 1.0   0.05
Li     1  0.4230530000000  0.3799810000000  0.2294990000000 1.0   0.05
O      2  0.2307310000000  0.4176030000000  0.4074860000000 1.0  -0.03
O      2 -0.4176030000000 -0.2307310000000 -0.4074860000000 1.0  -0.03
O      2 -0.1945760000000 -0.2456870000000 -0.0791820000000 1.0  -0.21
O      2  0.2456870000000  0.1945760000000  0.0791820000000 1.0  -0.21
O      2  0.1760520000000 -0.5876960000000 -0.1975000000000 1.0  -0.27
O      2  0.5876960000000 -0.1760520000000  0.1975000000000 1.0  -0.27
S      3  0.5148580000000  0.0728580000000 -0.3442770000000 1.0  -0.11
S      3 -0.0728580000000 -0.5148580000000  0.3442770000000 1.0  -0.11
Fe     4  0.0834460000000  0.5057510000000 -0.0126550000000 1.0  -3.19
Fe     4 -0.5057510000000 -0.0834460000000  0.0126550000000 1.0  -3.19
Fe     4  0.1626860000000 -0.0035590000000 -0.1762150000000 1.0  -2.97
Fe     4  0.0035590000000 -0.1626860000000  0.1762150000000 1.0  -2.97
END
