TITL LFSO-Li2Fe3S2O2-200921-034358-f4c7cd 0.0296 246.991520 -8.94657196E+003 -13.6844 14.3305 18 (I212121) n - 1
REM
REM Run started: Mon, 21 Sep 2020 14:05:41 +0100 in /lustre/scratch/uccabz1/launch_tmp/launcher_2020-09-21-02-43-56-416635
REM CASTEP 20.1 from code version af48c487+ pr-geom-scf-spinfix Tue Jun 2 15:39:59 2020 +0100
REM Functional Perdew Burke Ernzerhof Relativity Koelling-Harmon Dispersion off
REM Cut-off 340.0000 eV Grid scale 1.7500 Gmax 16.5316 1/A FBSC none
REM MP grid 3 3 3 Offset 0.000 0.000 0.000 No. kpts 8 Spacing 0.07
REM Total runtime: 38444.7 s
REM Overall efficiency: 98.1111 %
REM
REM
REM
REM compiler GCC version 4.9.2
REM options -cpp -iprefix /lustre/shared/ucl/apps/gcc/4.9.2/bin/../lib/gcc/x86_64-unknown-linux-gnu/4.9.2/ -mtune=corei7 -march=x86-64 -g -Og
REM COMMAND_LINE
REM seed 1200505981 838289678 -1507719415 -1778776698 -104397344 1197725851 2116729600 -1124774634 457734559 1595115273 1002534884 2032194653
REM
REM S 3|1.8|5|6|7|30:31:32(qc=5)
REM O 2|1.5|12|13|15|20:21(qc=5)
REM Li 1|1.3|8|9|10|10U:20(qc=5)
REM Fe 3|2.2|2.0|1.0|8|9|10|40:41:32(qc=5)
REM 
CELL 1.54180    5.85142    6.37584    7.90899  113.77065  111.71082   90.00000
LATT -1
SFAC Li O  S  Fe 
Li     1 -0.0337150000000 -0.5635030000000 -0.0638800000000 1.0  -0.01
Li     1 -0.4662850000000 -0.4996240000000  0.0638800000000 1.0  -0.01
Li     1 -0.4698350000000  0.0635030000000  0.0638800000000 1.0  -0.01
Li     1 -0.0301650000000 -0.0003760000000 -0.0638800000000 1.0  -0.01
O      2 -0.1740010000000  0.2764780000000  0.2265060000000 1.0  -0.14
O      2 -0.3259990000000  0.0499730000000 -0.2265060000000 1.0  -0.14
O      2  0.0994940000000  0.2235220000000 -0.2265060000000 1.0  -0.14
O      2  0.4005060000000 -0.5499730000000  0.2265060000000 1.0  -0.14
S      3 -0.1005970000000 -0.1956660000000  0.3048810000000 1.0   0.01
S      3 -0.3994030000000  0.4994530000000 -0.3048810000000 1.0   0.01
S      3  0.0945220000000 -0.3043340000000 -0.3048810000000 1.0   0.01
S      3  0.4054780000000  0.0005470000000  0.3048810000000 1.0   0.01
Fe     4  0.0671310000000  0.1344760000000  0.3395460000000 1.0  -2.04
Fe     4  0.4328690000000 -0.2050710000000 -0.3395460000000 1.0  -2.04
Fe     4  0.2275850000000 -0.6344760000000 -0.3395460000000 1.0  -2.04
Fe     4  0.2724150000000 -0.2949290000000  0.3395460000000 1.0  -2.04
Fe     4 -0.2190220000000  0.0309780000000 -0.4380430000000 1.0  -2.50
Fe     4 -0.2809780000000  0.4690220000000  0.4380430000000 1.0  -2.50
END
