TITL LFSO-Li2Fe2S2O-200913-135238-da8a55 0.2669 385.100489 -9.51246062E+003 11.4989 12.8711 21 (Pmm2) n - 1
REM
REM Run started: Mon, 14 Sep 2020 17:44:07 +0100 in /lustre/scratch/uccabz1/launch_tmp/launcher_2020-09-13-12-52-35-823287
REM CASTEP 20.1 from code version af48c487+ pr-geom-scf-spinfix Tue Jun 2 15:39:59 2020 +0100
REM Functional Perdew Burke Ernzerhof Relativity Koelling-Harmon Dispersion off
REM Cut-off 340.0000 eV Grid scale 1.7500 Gmax 16.5316 1/A FBSC none
REM MP grid 3 3 2 Offset 0.000 0.000 0.000 No. kpts 4 Spacing 0.07
REM Total runtime: 117767 s
REM Overall efficiency: 98.5 %
REM
REM
REM
REM compiler GCC version 4.9.2
REM options -cpp -iprefix /lustre/shared/ucl/apps/gcc/4.9.2/bin/../lib/gcc/x86_64-unknown-linux-gnu/4.9.2/ -mtune=corei7 -march=x86-64 -g -Og
REM COMMAND_LINE
REM seed -980830417 -1997063839 -570531110 -339423175 -815921599 365046815 859785284 -785785933 -2038149393 -879991842 226926769 -188112782
REM
REM S 3|1.8|5|6|7|30:31:32(qc=5)
REM O 2|1.5|12|13|15|20:21(qc=5)
REM Li 1|1.3|8|9|10|10U:20(qc=5)
REM Fe 3|2.2|2.0|1.0|8|9|10|40:41:32(qc=5)
REM 
CELL 1.54180    6.10652    5.18744   12.15702   90.00000   90.00000   90.00000
LATT -1
SFAC Li O  S  Fe 
Li     1 -0.0463810000000 -0.2236280000000 -0.3888170000000 1.0  -0.03
Li     1 -0.0463810000000  0.2236280000000  0.3888170000000 1.0  -0.03
Li     1 -0.0463810000000 -0.2236280000000  0.3888170000000 1.0  -0.03
Li     1 -0.0463810000000  0.2236280000000 -0.3888170000000 1.0  -0.03
Li     1  0.4077220000000 -0.2710810000000 -0.0000000000000 1.0  -0.12
Li     1  0.4077220000000  0.2710810000000  0.0000000000000 1.0  -0.12
O      2  0.4112210000000 -0.5000000000000 -0.1177130000000 1.0   0.10
O      2  0.4112210000000 -0.5000000000000  0.1177130000000 1.0   0.10
O      2 -0.0580870000000 -0.0000000000000  0.5000000000000 1.0   0.01
S      3  0.4614670000000  0.2128160000000  0.3567580000000 1.0  -0.06
S      3  0.4614670000000 -0.2128160000000 -0.3567580000000 1.0  -0.06
S      3  0.4614670000000  0.2128160000000 -0.3567580000000 1.0  -0.06
S      3  0.4614670000000 -0.2128160000000  0.3567580000000 1.0  -0.06
S      3 -0.0367090000000 -0.5000000000000 -0.2282670000000 1.0   0.09
S      3 -0.0367090000000 -0.5000000000000  0.2282670000000 1.0   0.09
Fe     4  0.2665790000000  0.2362560000000 -0.2108810000000 1.0   1.91
Fe     4  0.2665790000000 -0.2362560000000  0.2108810000000 1.0   1.91
Fe     4  0.2665790000000  0.2362560000000  0.2108810000000 1.0   1.91
Fe     4  0.2665790000000 -0.2362560000000 -0.2108810000000 1.0   1.91
Fe     4 -0.4007990000000 -0.5000000000000 -0.2454520000000 1.0   2.05
Fe     4 -0.4007990000000 -0.5000000000000  0.2454520000000 1.0   2.05
END
