TITL LFSO-Li3FeS2O-200911-171050-1d66f0 0.2487 782.888140 -5.01647359E+003 7.02469 7.46642 14 (Cm) n - 1
REM
REM Run started: Sat, 12 Sep 2020 12:11:13 +0100 in /lustre/scratch/uccabz1/launch_tmp/launcher_2020-09-12-08-01-29-371566
REM CASTEP 20.1 from code version af48c487+ pr-geom-scf-spinfix Tue Jun 2 15:39:59 2020 +0100
REM Functional Perdew Burke Ernzerhof Relativity Koelling-Harmon Dispersion off
REM Cut-off 340.0000 eV Grid scale 1.7500 Gmax 16.5316 1/A FBSC none
REM MP grid 3 2 4 Offset 0.000 0.000 0.000 No. kpts 7 Spacing 0.07
REM Total runtime: 56951.5 s
REM Overall efficiency: 70.25 %
REM
REM
REM
REM compiler GCC version 4.9.2
REM options -cpp -iprefix /lustre/shared/ucl/apps/gcc/4.9.2/bin/../lib/gcc/x86_64-unknown-linux-gnu/4.9.2/ -mtune=corei7 -march=x86-64 -g -Og
REM COMMAND_LINE
REM seed 1334633786 -455350230 -1413558689 -2052341682 -1075546185 -1635916146 -1161547850 -294861857 -69384504 1171920435 -639855530 -853362377
REM
REM S 3|1.8|5|6|7|30:31:32(qc=5)
REM O 2|1.5|12|13|15|20:21(qc=5)
REM Li 1|1.3|8|9|10|10U:20(qc=5)
REM Fe 3|2.2|2.0|1.0|8|9|10|40:41:32(qc=5)
REM 
CELL 1.54180    6.84688   27.44767   14.53565  160.76053   99.35902   90.00000
LATT -1
SFAC Li O  S  Fe 
Li     1  0.1651230000000 -0.2142630000000  0.0856090000000 1.0   0.02
Li     1  0.1651230000000  0.2998720000000  0.0856090000000 1.0   0.02
Li     1 -0.1157220000000  0.4373510000000  0.3136890000000 1.0  -0.01
Li     1 -0.1157220000000 -0.1236610000000  0.3136890000000 1.0  -0.01
Li     1  0.5499410000000  0.5881290000000 -0.2624870000000 1.0   0.03
Li     1  0.5499410000000  0.1493840000000 -0.2624870000000 1.0   0.03
O      2 -0.1363020000000 -0.3352880000000 -0.0681210000000 1.0   0.28
O      2 -0.1363020000000  0.2671660000000 -0.0681210000000 1.0   0.28
S      3  0.1497340000000  0.0509730000000 -0.4744800000000 1.0   0.13
S      3  0.1497340000000 -0.5254520000000 -0.4744800000000 1.0   0.13
S      3  0.5506230000000 -0.1291420000000  0.2071200000000 1.0   0.13
S      3  0.5506230000000  0.3362620000000  0.2071200000000 1.0   0.13
Fe     4 -0.1486180000000  0.0855650000000 -0.4361120000000 1.0   2.94
Fe     4 -0.1486180000000  0.4783220000000 -0.4361120000000 1.0   2.94
END
