TITL LFSO-LiFe3S3O2-200909-135812-61f009 0.0381 135.477844 -4.57538246E+003 5.51034 5.95905 9 (Imm2) n - 1
REM
REM Run started: Wed, 09 Sep 2020 16:15:17 +0100 in /lustre/scratch/uccabz1/launch_tmp/launcher_2020-09-09-12-58-10-159389
REM CASTEP 20.1 from code version af48c487+ pr-geom-scf-spinfix Tue Jun 2 15:39:59 2020 +0100
REM Functional Perdew Burke Ernzerhof Relativity Koelling-Harmon Dispersion off
REM Cut-off 340.0000 eV Grid scale 1.7500 Gmax 16.5316 1/A FBSC none
REM MP grid 5 3 3 Offset 0.000 0.000 0.000 No. kpts 16 Spacing 0.07
REM Total runtime: 8280.41 s
REM Overall efficiency: 93.7143 %
REM
REM
REM
REM compiler GCC version 4.9.2
REM options -cpp -iprefix /lustre/shared/ucl/apps/gcc/4.9.2/bin/../lib/gcc/x86_64-unknown-linux-gnu/4.9.2/ -mtune=corei7 -march=x86-64 -g -Og
REM COMMAND_LINE
REM seed 784104439 841609000 -908643749 1980348150 279406061 691281202 213287502 -529987453 1423031244 -1984667445 -1713503848 -863493402
REM
REM S 3|1.8|5|6|7|30:31:32(qc=5)
REM O 2|1.5|12|13|15|20:21(qc=5)
REM Li 1|1.3|8|9|10|10U:20(qc=5)
REM Fe 3|2.2|2.0|1.0|8|9|10|40:41:32(qc=5)
REM 
CELL 1.54180    3.52575    6.81672    6.81672   60.05220   75.01241   75.01241
LATT -1
SFAC Li O  S  Fe 
Li     1  0.5000000000000  0.0527270000000 -0.0527270000000 1.0  -0.02
O      2 -0.3007190000000  0.3028880000000 -0.3028880000000 1.0  -0.03
O      2  0.3007190000000  0.3028880000000 -0.3028880000000 1.0  -0.03
S      3 -0.2355110000000  0.2448160000000  0.2262060000000 1.0   0.00
S      3  0.2355110000000 -0.2262060000000 -0.2448160000000 1.0   0.00
S      3  0.5000000000000 -0.2841760000000  0.2841760000000 1.0  -0.01
Fe     4 -0.1850390000000 -0.1420930000000 -0.4878280000000 1.0   2.51
Fe     4  0.1850390000000  0.4878280000000  0.1420930000000 1.0   2.51
Fe     4 -0.0000000000000 -0.4885530000000  0.4885530000000 1.0   0.58
END
