TITL LFSO-Li2Fe2SO3-200913-102148-893b2d -0.1218 342.248321 -1.12335475E+004 18.0000 18.7039 24 (P31) n - 1
REM
REM Run started: Sun, 13 Sep 2020 23:28:56 +0100 in /lustre/scratch/uccabz1/launch_tmp/launcher_2020-09-13-22-11-35-848673
REM CASTEP 20.1 from code version af48c487+ pr-geom-scf-spinfix Tue Jun 2 15:39:59 2020 +0100
REM Functional Perdew Burke Ernzerhof Relativity Koelling-Harmon Dispersion off
REM Cut-off 340.0000 eV Grid scale 1.7500 Gmax 16.5316 1/A FBSC none
REM MP grid 3 3 2 Offset 0.000 0.000 0.000 No. kpts 5 Spacing 0.07
REM Total runtime: 46015.7 s
REM Overall efficiency: 73.0714 %
REM
REM
REM
REM compiler GCC version 4.9.2
REM options -cpp -iprefix /lustre/shared/ucl/apps/gcc/4.9.2/bin/../lib/gcc/x86_64-unknown-linux-gnu/4.9.2/ -mtune=corei7 -march=x86-64 -g -Og
REM COMMAND_LINE
REM seed -58816471 -918283541 33454234 -1172824767 1508090919 1162404207 2098341861 -1424386324 153449872 -124100009 1670297500 -1873579155
REM
REM S 3|1.8|5|6|7|30:31:32(qc=5)
REM O 2|1.5|12|13|15|20:21(qc=5)
REM Li 1|1.3|8|9|10|10U:20(qc=5)
REM Fe 3|2.2|2.0|1.0|8|9|10|40:41:32(qc=5)
REM 
CELL 1.54180    5.71526    5.71526   12.09869   90.00000   90.00000  120.00000
LATT -1
SFAC Li O  S  Fe 
Li     1  0.0733850000000  0.1688340000000  0.2438750000000 1.0  -0.04
Li     1  0.0954490000000 -0.0733850000000 -0.0894590000000 1.0  -0.04
Li     1 -0.1688340000000 -0.0954490000000 -0.4227920000000 1.0  -0.04
Li     1 -0.4143890000000 -0.2721430000000 -0.1905920000000 1.0  -0.03
Li     1  0.1422460000000  0.4143890000000  0.4760740000000 1.0  -0.03
Li     1  0.2721430000000 -0.1422460000000  0.1427410000000 1.0  -0.03
O      2  0.4403060000000 -0.3628300000000 -0.0279820000000 1.0   0.27
O      2  0.1968640000000 -0.4403060000000 -0.3613160000000 1.0   0.27
O      2  0.3628300000000 -0.1968640000000  0.3053510000000 1.0   0.27
O      2 -0.1957300000000  0.0316070000000  0.4116370000000 1.0   0.16
O      2  0.2273360000000  0.1957300000000  0.0783030000000 1.0   0.16
O      2 -0.0316070000000 -0.2273360000000 -0.2550300000000 1.0   0.16
O      2 -0.0463180000000 -0.3626120000000  0.0031210000000 1.0   0.17
O      2 -0.3162940000000  0.0463180000000 -0.3302120000000 1.0   0.17
O      2  0.3626120000000  0.3162940000000  0.3364550000000 1.0   0.17
S      3 -0.2321270000000 -0.4911040000000 -0.5187530000000 1.0   0.07
S      3 -0.2589770000000  0.2321270000000  0.1479140000000 1.0   0.07
S      3  0.4911040000000  0.2589770000000 -0.1854200000000 1.0   0.07
Fe     4  0.3210190000000 -0.1006280000000 -0.3010970000000 1.0   2.63
Fe     4 -0.4216460000000 -0.3210190000000  0.3655690000000 1.0   2.63
Fe     4  0.1006280000000  0.4216460000000  0.0322360000000 1.0   2.63
Fe     4 -0.1473960000000 -0.5868900000000 -0.2955020000000 1.0   2.76
Fe     4 -0.4394940000000  0.1473960000000  0.3711650000000 1.0   2.76
Fe     4  0.5868900000000  0.4394940000000  0.0378310000000 1.0   2.76
END
