TITL LFSO-Li4Fe2SO3-200910-203954-662e88 0.1311 272.597981 -4.14331518E+003 8.07892 8.17657 10 (Pm) n - 1
REM
REM Run started: Fri, 11 Sep 2020 00:19:04 +0100 in /lustre/scratch/uccabz1/launch_tmp/launcher_2020-09-10-19-39-52-120830
REM CASTEP 20.1 from code version af48c487+ pr-geom-scf-spinfix Tue Jun 2 15:39:59 2020 +0100
REM Functional Perdew Burke Ernzerhof Relativity Koelling-Harmon Dispersion off
REM Cut-off 340.0000 eV Grid scale 1.7500 Gmax 16.5316 1/A FBSC none
REM MP grid 5 3 2 Offset 0.000 0.000 0.000 No. kpts 8 Spacing 0.07
REM Total runtime: 14860.4 s
REM Overall efficiency: 95.9231 %
REM
REM
REM
REM compiler GCC version 4.9.2
REM options -cpp -iprefix /lustre/shared/ucl/apps/gcc/4.9.2/bin/../lib/gcc/x86_64-unknown-linux-gnu/4.9.2/ -mtune=corei7 -march=x86-64 -g -Og
REM COMMAND_LINE
REM seed -719609814 -1531181108 1144461215 1003099284 194162318 -932958450 -1860493290 1740426290 848650084 2106165319 1377539391 1737241608
REM
REM S 3|1.8|5|6|7|30:31:32(qc=5)
REM O 2|1.5|12|13|15|20:21(qc=5)
REM Li 1|1.3|8|9|10|10U:20(qc=5)
REM Fe 3|2.2|2.0|1.0|8|9|10|40:41:32(qc=5)
REM 
CELL 1.54180    3.61567    6.88964   11.38816   90.00000   90.00000  106.07259
LATT -1
SFAC Li O  S  Fe 
Li     1 -0.1761810000000  0.4081900000000 -0.3888570000000 1.0  -0.00
Li     1 -0.1761810000000  0.4081900000000  0.3888570000000 1.0  -0.00
Li     1  0.5307440000000 -0.1371410000000 -0.3511050000000 1.0  -0.04
Li     1  0.5307440000000 -0.1371410000000  0.3511050000000 1.0  -0.04
O      2 -0.3183810000000  0.1396860000000  0.3264540000000 1.0   0.27
O      2 -0.3183810000000  0.1396860000000 -0.3264540000000 1.0   0.27
O      2  0.2967260000000 -0.6381060000000  0.5000000000000 1.0   0.35
S      3  0.0056410000000 -0.1955030000000  0.5000000000000 1.0   0.20
Fe     4  0.1754950000000  0.1288330000000  0.3877210000000 1.0   3.53
Fe     4  0.1754950000000  0.1288330000000 -0.3877210000000 1.0   3.53
END
