TITL LFSO-Li2Fe4SO4-200911-234156-d5ff48 -0.0520 270.623689 -1.18135083E+004 0.915126E-02 0.993842E-01 22 (P-4) n - 1
REM
REM Run started: Sat, 12 Sep 2020 13:19:48 +0100 in /lustre/scratch/uccabz1/launch_tmp/launcher_2020-09-11-22-41-53-510260
REM CASTEP 20.1 from code version af48c487+ pr-geom-scf-spinfix Tue Jun 2 15:39:59 2020 +0100
REM Functional Perdew Burke Ernzerhof Relativity Koelling-Harmon Dispersion off
REM Cut-off 340.0000 eV Grid scale 1.7500 Gmax 16.5316 1/A FBSC none
REM MP grid 3 3 2 Offset 0.000 0.000 0.000 No. kpts 3 Spacing 0.07
REM Total runtime: 52064.8 s
REM Overall efficiency: 97.6667 %
REM
REM
REM
REM compiler GCC version 4.9.2
REM options -cpp -iprefix /lustre/shared/ucl/apps/gcc/4.9.2/bin/../lib/gcc/x86_64-unknown-linux-gnu/4.9.2/ -mtune=corei7 -march=x86-64 -g -Og
REM COMMAND_LINE
REM seed 1192773117 978177066 -648790913 1317966077 -1700241382 -437392512 1504023451 218540569 1754991262 622658929 316019272 1450099199
REM
REM S 3|1.8|5|6|7|30:31:32(qc=5)
REM O 2|1.5|12|13|15|20:21(qc=5)
REM Li 1|1.3|8|9|10|10U:20(qc=5)
REM Fe 3|2.2|2.0|1.0|8|9|10|40:41:32(qc=5)
REM 
CELL 1.54180    5.14960    5.14960   10.20514   90.00000   90.00000   90.00000
LATT -1
SFAC Li O  S  Fe 
Li     1  0.2467950000000 -0.6478550000000  0.1192930000000 1.0  -0.00
Li     1 -0.2467950000000  0.6478550000000  0.1192930000000 1.0  -0.00
Li     1  0.6478550000000  0.2467950000000 -0.1192930000000 1.0  -0.00
Li     1 -0.6478550000000 -0.2467950000000 -0.1192930000000 1.0  -0.00
O      2  0.1434320000000 -0.3251810000000  0.3951930000000 1.0  -0.00
O      2 -0.1434320000000  0.3251810000000  0.3951930000000 1.0  -0.00
O      2  0.3251810000000  0.1434320000000 -0.3951930000000 1.0  -0.00
O      2 -0.3251810000000 -0.1434320000000 -0.3951930000000 1.0  -0.00
O      2  0.2574860000000  0.6379630000000 -0.2922220000000 1.0   0.00
O      2 -0.2574860000000 -0.6379630000000 -0.2922220000000 1.0   0.00
O      2 -0.6379630000000  0.2574860000000  0.2922220000000 1.0   0.00
O      2  0.6379630000000 -0.2574860000000  0.2922220000000 1.0   0.00
S      3  0.5000000000000  0.0000000000000  0.0688880000000 1.0   0.00
S      3  0.0000000000000 -0.5000000000000 -0.0688880000000 1.0   0.00
Fe     4  0.2159340000000  0.3134710000000  0.4566150000000 1.0  -0.01
Fe     4 -0.2159340000000 -0.3134710000000  0.4566150000000 1.0  -0.01
Fe     4 -0.3134710000000  0.2159340000000 -0.4566150000000 1.0  -0.01
Fe     4  0.3134710000000 -0.2159340000000 -0.4566150000000 1.0  -0.01
Fe     4 -0.2989450000000  0.0892920000000  0.2861100000000 1.0   0.01
Fe     4  0.2989450000000 -0.0892920000000  0.2861100000000 1.0   0.01
Fe     4 -0.0892920000000 -0.2989450000000 -0.2861100000000 1.0   0.01
Fe     4  0.0892920000000  0.2989450000000 -0.2861100000000 1.0   0.01
END
