TITL LFSO-Li4Fe3S2O3-201001-010405-75107b 0.3335 397.612562 -1.06092612E+004 2.15453 19.8153 24 (P3) n - 1
REM
REM Run started: Thu, 01 Oct 2020 11:39:00 +0100 in /lustre/scratch/uccabz1/launch_tmp/launcher_2020-10-01-08-36-47-428601
REM CASTEP 20.1 from code version af48c487+ pr-geom-scf-spinfix Tue Jun 2 15:39:59 2020 +0100
REM Functional Perdew Burke Ernzerhof Relativity Koelling-Harmon Dispersion off
REM Cut-off 340.0000 eV Grid scale 1.7500 Gmax 16.5316 1/A FBSC none
REM MP grid 3 3 2 Offset 0.000 0.000 0.000 No. kpts 5 Spacing 0.07
REM Total runtime: 23024.7 s
REM Overall efficiency: 65 %
REM
REM
REM
REM compiler GCC version 4.9.2
REM options -cpp -iprefix /lustre/shared/ucl/apps/gcc/4.9.2/bin/../lib/gcc/x86_64-unknown-linux-gnu/4.9.2/ -mtune=corei7 -march=x86-64 -g -Og
REM COMMAND_LINE
REM seed 709575322 2052242369 -1563671207 225914727 1491557599 -1525010668 614976626 -466878310 2049436819 1064688104 1078827253 76257432
REM
REM S 3|1.8|5|6|7|30:31:32(qc=5)
REM O 2|1.5|12|13|15|20:21(qc=5)
REM Li 1|1.3|8|9|10|10U:20(qc=5)
REM Fe 3|2.2|2.0|1.0|8|9|10|40:41:32(qc=5)
REM 
CELL 1.54180    6.91368    6.91368    9.60530   90.00000   90.00000  120.00000
LATT -1
SFAC Li O  S  Fe 
Li     1 -0.1161190000000  0.2828110000000  0.2937650000000 1.0   0.08
Li     1  0.3989300000000  0.1161190000000  0.2937650000000 1.0   0.08
Li     1 -0.2828110000000 -0.3989300000000  0.2937650000000 1.0   0.08
Li     1 -0.3959710000000 -0.1123180000000  0.1926570000000 1.0   0.02
Li     1  0.2836530000000  0.3959710000000  0.1926570000000 1.0   0.02
Li     1  0.1123180000000 -0.2836530000000  0.1926570000000 1.0   0.02
Li     1 -0.3333330000000  0.3333330000000  0.0418100000000 1.0   0.10
Li     1  0.3333330000000 -0.3333330000000 -0.2510010000000 1.0  -0.02
O      2 -0.5257820000000 -0.4999030000000 -0.1987450000000 1.0  -0.03
O      2  0.0258790000000  0.5257820000000 -0.1987450000000 1.0  -0.03
O      2  0.4999030000000 -0.0258790000000 -0.1987450000000 1.0  -0.03
O      2 -0.1837560000000  0.1560410000000 -0.5351910000000 1.0   0.28
O      2  0.3397960000000  0.1837560000000 -0.5351910000000 1.0   0.28
O      2 -0.1560410000000 -0.3397960000000 -0.5351910000000 1.0   0.28
S      3 -0.3419270000000  0.0095700000000 -0.0619030000000 1.0  -0.02
S      3  0.3514960000000  0.3419270000000 -0.0619030000000 1.0  -0.02
S      3 -0.0095700000000 -0.3514960000000 -0.0619030000000 1.0  -0.02
S      3 -0.0000000000000 -0.0000000000000  0.1697980000000 1.0  -0.07
Fe     4 -0.3233940000000 -0.3053170000000 -0.0187110000000 1.0  -2.83
Fe     4  0.0180770000000  0.3233940000000 -0.0187110000000 1.0  -2.83
Fe     4  0.3053170000000 -0.0180770000000 -0.0187110000000 1.0  -2.83
Fe     4 -0.2472730000000 -0.1315810000000  0.4925140000000 1.0   3.23
Fe     4  0.1156920000000  0.2472730000000  0.4925140000000 1.0   3.23
Fe     4  0.1315810000000 -0.1156920000000  0.4925140000000 1.0   3.23
END
