TITL LFSO-Li3Fe3S5O-200929-073430-125cab -0.0735 406.798240 -1.02973596E+004 8.65635 15.9058 24 (Pc) n - 1
REM
REM Run started: Tue, 29 Sep 2020 23:57:33 +0100 in /lustre/scratch/uccabz1/launch_tmp/launcher_2020-09-29-06-34-28-504342
REM CASTEP 20.1 from code version af48c487+ pr-geom-scf-spinfix Tue Jun 2 15:39:59 2020 +0100
REM Functional Perdew Burke Ernzerhof Relativity Koelling-Harmon Dispersion off
REM Cut-off 340.0000 eV Grid scale 1.7500 Gmax 16.5316 1/A FBSC none
REM MP grid 3 2 3 Offset 0.000 0.000 0.000 No. kpts 5 Spacing 0.07
REM Total runtime: 65964.8 s
REM Overall efficiency: 72.1667 %
REM
REM
REM
REM compiler GCC version 4.9.2
REM options -cpp -iprefix /lustre/shared/ucl/apps/gcc/4.9.2/bin/../lib/gcc/x86_64-unknown-linux-gnu/4.9.2/ -mtune=corei7 -march=x86-64 -g -Og
REM COMMAND_LINE
REM seed 861218409 -1980844810 -1572964942 50981101 1118283546 1818403436 1353742479 -1694940368 1464612893 -767325882 1766267748 -1004675087
REM
REM S 3|1.8|5|6|7|30:31:32(qc=5)
REM O 2|1.5|12|13|15|20:21(qc=5)
REM Li 1|1.3|8|9|10|10U:20(qc=5)
REM Fe 3|2.2|2.0|1.0|8|9|10|40:41:32(qc=5)
REM 
CELL 1.54180    6.87210   10.79698    6.29041   90.00000  119.35708   90.00000
LATT -1
SFAC Li O  S  Fe 
Li     1 -0.5219140000000 -0.5230900000000  0.0045150000000 1.0   0.04
Li     1 -0.0219140000000  0.5230900000000  0.0045150000000 1.0   0.04
Li     1 -0.2221210000000  0.3753620000000 -0.5297180000000 1.0  -0.01
Li     1  0.2778790000000 -0.3753620000000 -0.5297180000000 1.0  -0.01
Li     1  0.2212700000000 -0.1785810000000  0.0314500000000 1.0   0.03
Li     1 -0.2787300000000  0.1785810000000  0.0314500000000 1.0   0.03
O      2 -0.2857320000000  0.5244840000000  0.3057320000000 1.0   0.42
O      2  0.2142680000000 -0.5244840000000  0.3057320000000 1.0   0.42
S      3 -0.3293980000000  0.3652140000000 -0.2147240000000 1.0   0.26
S      3  0.1706020000000 -0.3652140000000 -0.2147240000000 1.0   0.26
S      3  0.1165770000000  0.2493500000000 -0.4512220000000 1.0   0.02
S      3 -0.3834230000000 -0.2493500000000 -0.4512220000000 1.0   0.02
S      3  0.5446870000000  0.0253430000000 -0.4538480000000 1.0   0.08
S      3  0.0446870000000 -0.0253430000000 -0.4538480000000 1.0   0.08
S      3 -0.4753250000000 -0.0350960000000  0.0199490000000 1.0   0.00
S      3  0.0246750000000  0.0350960000000  0.0199490000000 1.0   0.00
S      3  0.4126230000000  0.2518620000000  0.1473250000000 1.0   0.08
S      3 -0.0873770000000 -0.2518620000000  0.1473250000000 1.0   0.08
Fe     4  0.2024840000000  0.0922070000000  0.3919010000000 1.0  -1.77
Fe     4 -0.2975160000000 -0.0922070000000  0.3919010000000 1.0  -1.77
Fe     4  0.3506290000000  0.3385020000000  0.4390720000000 1.0   3.02
Fe     4 -0.1493710000000 -0.3385020000000  0.4390720000000 1.0   3.02
Fe     4  0.2241010000000  0.1011050000000 -0.1515690000000 1.0   2.16
Fe     4 -0.2758990000000 -0.1011050000000 -0.1515690000000 1.0   2.16
END
