TITL LFSO-Li2Fe4S2O3-200912-080517-8213ed 0.0065 327.355990 -1.15441774E+004 0.784030E-01 0.866253 22 (P2) n - 1
REM
REM Run started: Sun, 13 Sep 2020 14:41:29 +0100 in /lustre/scratch/uccabz1/launch_tmp/launcher_2020-09-12-07-05-15-723567
REM CASTEP 20.1 from code version af48c487+ pr-geom-scf-spinfix Tue Jun 2 15:39:59 2020 +0100
REM Functional Perdew Burke Ernzerhof Relativity Koelling-Harmon Dispersion off
REM Cut-off 340.0000 eV Grid scale 1.7500 Gmax 16.5316 1/A FBSC none
REM MP grid 4 3 2 Offset 0.000 0.000 0.000 No. kpts 6 Spacing 0.07
REM Total runtime: 122559 s
REM Overall efficiency: 98.3333 %
REM
REM
REM
REM compiler GCC version 4.9.2
REM options -cpp -iprefix /lustre/shared/ucl/apps/gcc/4.9.2/bin/../lib/gcc/x86_64-unknown-linux-gnu/4.9.2/ -mtune=corei7 -march=x86-64 -g -Og
REM COMMAND_LINE
REM seed -1540613393 1066418510 392809222 -596252844 -1336011857 47229026 -986998742 523264053 1920544841 -356696836 1699683697 1268221565
REM
REM S 3|1.8|5|6|7|30:31:32(qc=5)
REM O 2|1.5|12|13|15|20:21(qc=5)
REM Li 1|1.3|8|9|10|10U:20(qc=5)
REM Fe 3|2.2|2.0|1.0|8|9|10|40:41:32(qc=5)
REM 
CELL 1.54180    4.49042    6.12843   12.67450   90.00000   90.00000  110.19201
LATT -1
SFAC Li O  S  Fe 
Li     1  0.3836230000000 -0.3557100000000  0.1435800000000 1.0   0.00
Li     1 -0.3836230000000  0.3557100000000  0.1435800000000 1.0   0.00
Li     1  0.2602680000000  0.4536290000000 -0.2616820000000 1.0  -0.00
Li     1 -0.2602680000000 -0.4536290000000 -0.2616820000000 1.0  -0.00
O      2 -0.5152990000000  0.2396760000000 -0.2155520000000 1.0   0.00
O      2  0.5152990000000 -0.2396760000000 -0.2155520000000 1.0   0.00
O      2 -0.1566830000000 -0.3058140000000  0.1427550000000 1.0   0.01
O      2  0.1566830000000  0.3058140000000  0.1427550000000 1.0   0.01
O      2 -0.6393310000000 -0.2582670000000 -0.0033780000000 1.0   0.01
O      2  0.6393310000000  0.2582670000000 -0.0033780000000 1.0   0.01
S      3 -0.0937260000000  0.2409850000000 -0.3933120000000 1.0  -0.00
S      3  0.0937260000000 -0.2409850000000 -0.3933120000000 1.0  -0.00
S      3 -0.0469830000000  0.3234090000000  0.3861230000000 1.0  -0.00
S      3  0.0469830000000 -0.3234090000000  0.3861230000000 1.0  -0.00
Fe     4  0.2752550000000 -0.4873620000000  0.5143000000000 1.0   0.02
Fe     4 -0.2752550000000  0.4873620000000  0.5143000000000 1.0   0.02
Fe     4 -0.2253620000000  0.0621190000000 -0.2465060000000 1.0  -0.05
Fe     4  0.2253620000000 -0.0621190000000 -0.2465060000000 1.0  -0.05
Fe     4  0.0300940000000 -0.1880600000000  0.0288790000000 1.0  -0.06
Fe     4 -0.0300940000000  0.1880600000000  0.0288790000000 1.0  -0.06
Fe     4  0.2819120000000  0.1520050000000 -0.0839140000000 1.0   0.09
Fe     4 -0.2819120000000 -0.1520050000000 -0.0839140000000 1.0   0.09
END
