TITL LFSO-LiFe3S3O2-200909-120623-31ebd8 0.0090 358.580040 -9.15310160E+003 -8.73403 10.0733 18 (P3) n - 1
REM
REM Run started: Thu, 10 Sep 2020 01:58:07 +0100 in /lustre/scratch/uccabz1/launch_tmp/launcher_2020-09-09-11-06-21-671148
REM CASTEP 20.1 from code version af48c487+ pr-geom-scf-spinfix Tue Jun 2 15:39:59 2020 +0100
REM Functional Perdew Burke Ernzerhof Relativity Koelling-Harmon Dispersion off
REM Cut-off 340.0000 eV Grid scale 1.7500 Gmax 16.5316 1/A FBSC none
REM MP grid 2 3 3 Offset 0.000 0.000 0.000 No. kpts 5 Spacing 0.07
REM Total runtime: 55274.7 s
REM Overall efficiency: 84.2308 %
REM
REM
REM
REM compiler GCC version 4.9.2
REM options -cpp -iprefix /lustre/shared/ucl/apps/gcc/4.9.2/bin/../lib/gcc/x86_64-unknown-linux-gnu/4.9.2/ -mtune=corei7 -march=x86-64 -g -Og
REM COMMAND_LINE
REM seed -248304547 -1259975617 832711523 -1211072776 -1072914410 -559009344 -268136197 -1178624467 -129861043 1431675111 2087533663 -1158900240
REM
REM S 3|1.8|5|6|7|30:31:32(qc=5)
REM O 2|1.5|12|13|15|20:21(qc=5)
REM Li 1|1.3|8|9|10|10U:20(qc=5)
REM Fe 3|2.2|2.0|1.0|8|9|10|40:41:32(qc=5)
REM 
CELL 1.54180    9.48294    6.60779    6.60779  120.00000   90.00000   90.00000
LATT -1
SFAC Li O  S  Fe 
Li     1 -0.1267410000000  0.3333330000000 -0.3333330000000 1.0  -0.00
Li     1  0.2491630000000  0.3333330000000 -0.3333330000000 1.0   0.04
O      2  0.5114070000000 -0.4003140000000  0.0184980000000 1.0  -0.12
O      2  0.5114070000000  0.4188120000000  0.4003140000000 1.0  -0.12
O      2  0.5114070000000 -0.0184980000000 -0.4188120000000 1.0  -0.12
O      2 -0.2597170000000 -0.3333330000000  0.3333330000000 1.0  -0.03
S      3 -0.2535250000000 -0.3211700000000 -0.2655870000000 1.0  -0.04
S      3 -0.2535250000000  0.0555830000000  0.3211700000000 1.0  -0.04
S      3 -0.2535250000000  0.2655870000000 -0.0555830000000 1.0  -0.04
S      3  0.3022020000000  0.0430720000000  0.2539020000000 1.0   0.15
S      3  0.3022020000000  0.2108300000000 -0.0430720000000 1.0   0.15
S      3  0.3022020000000 -0.2539020000000 -0.2108300000000 1.0   0.15
Fe     4 -0.2990060000000 -0.3448010000000  0.0515920000000 1.0  -0.69
Fe     4 -0.2990060000000  0.3963930000000  0.3448010000000 1.0  -0.69
Fe     4 -0.2990060000000 -0.0515920000000 -0.3963930000000 1.0  -0.69
Fe     4  0.5036690000000  0.2719270000000 -0.1482010000000 1.0  -2.22
Fe     4  0.5036690000000 -0.4201280000000 -0.2719270000000 1.0  -2.22
Fe     4  0.5036690000000  0.1482010000000  0.4201280000000 1.0  -2.22
END
