TITL LFSO-Li3Fe3S5O-201002-143608-40b8a1 -0.0489 184.456909 -5.14831099E+003 1.54366 1.88599 12 (P1) n - 1
REM
REM Run started: Fri, 02 Oct 2020 18:48:48 +0100 in /scratch/scratch/mmm0366/launch_tmp/launcher_2020-10-02-13-36-06-588666
REM CASTEP 19.11| from code version Version unavailable
REM Functional Perdew Burke Ernzerhof Relativity Koelling-Harmon Dispersion off
REM Cut-off 340.0000 eV Grid scale 1.7500 Gmax 16.5316 1/A FBSC none
REM MP grid 5 4 2 Offset 0.000 0.000 0.000 No. kpts 10 Spacing 0.07
REM Total runtime: 15202.7 s
REM Overall efficiency: 79.625 %
REM
REM
REM
REM compiler GCC version 4.9.2
REM options -cpp -iprefix /scratch/UCL/applications/gcc/4.9.2/bin/../lib/gcc/x86_64-unknown-linux-gnu/4.9.2/ -mtune=corei7 -march=x86-64 -g -O2
REM COMMAND_LINE
REM seed -1567539062 599469949 -1519657996 1027768268 23098390 -44431592 1643049975 1196594487 1267527850 1187820978 -129409235 183239575
REM
REM S 3|1.8|5|6|7|30:31:32(qc=5)
REM O 2|1.5|12|13|15|20:21(qc=5)
REM Li 1|1.3|8|9|10|10U:20(qc=5)
REM Fe 3|2.2|2.0|1.0|8|9|10|40:41:32(qc=5)
REM 
CELL 1.54180    3.54361    3.79322   13.72348   90.00000   90.00000   90.59472
LATT -1
SFAC Li O  S  Fe 
Li     1  0.2298550000000  0.3718320000000 -0.3294460000000 1.0  -0.00
Li     1  0.2298550000000  0.3718320000000  0.3294460000000 1.0  -0.00
Li     1 -0.1771050000000  0.3271060000000 -0.5000000000000 1.0  -0.01
O      2  0.3235670000000  0.3400580000000 -0.5000000000000 1.0   0.23
S      3 -0.1715960000000 -0.1564840000000  0.3835340000000 1.0  -0.04
S      3 -0.1715960000000 -0.1564840000000 -0.3835340000000 1.0  -0.04
S      3 -0.3546730000000  0.2748610000000 -0.1623710000000 1.0  -0.00
S      3 -0.3546730000000  0.2748610000000  0.1623710000000 1.0  -0.00
S      3  0.1508400000000 -0.2263090000000  0.0000000000000 1.0   0.00
Fe     4 -0.3484540000000 -0.2260770000000 -0.0921390000000 1.0   0.00
Fe     4 -0.3484540000000 -0.2260770000000  0.0921390000000 1.0   0.00
Fe     4  0.3251380000000 -0.1664200000000  0.5000000000000 1.0   1.41
END
