TITL LFSO-Li3Fe3S5O-201002-142514-90d2f8 0.0571 205.040578 -5.14730622E+003 7.16553 7.49670 12 (C2/m) n - 1
REM
REM Run started: Fri, 02 Oct 2020 17:18:56 +0100 in /lustre/scratch/uccabz1/launch_tmp/launcher_2020-10-02-13-25-11-882346
REM CASTEP 20.1 from code version af48c487+ pr-geom-scf-spinfix Tue Jun 2 15:39:59 2020 +0100
REM Functional Perdew Burke Ernzerhof Relativity Koelling-Harmon Dispersion off
REM Cut-off 340.0000 eV Grid scale 1.7500 Gmax 16.5316 1/A FBSC none
REM MP grid 3 3 2 Offset 0.000 0.000 0.000 No. kpts 6 Spacing 0.07
REM Total runtime: 10477.1 s
REM Overall efficiency: 79 %
REM
REM
REM
REM compiler GCC version 4.9.2
REM options -cpp -iprefix /lustre/shared/ucl/apps/gcc/4.9.2/bin/../lib/gcc/x86_64-unknown-linux-gnu/4.9.2/ -mtune=corei7 -march=x86-64 -g -Og
REM COMMAND_LINE
REM seed -1850691580 -688081625 -944897178 -1199039916 607973616 1081602689 1261470579 -342158605 -277097493 626769069 1623769386 -1578122050
REM
REM S 3|1.8|5|6|7|30:31:32(qc=5)
REM O 2|1.5|12|13|15|20:21(qc=5)
REM Li 1|1.3|8|9|10|10U:20(qc=5)
REM Fe 3|2.2|2.0|1.0|8|9|10|40:41:32(qc=5)
REM 
CELL 1.54180    5.11666    5.11666    8.03825   82.14744   82.14744   95.64716
LATT -1
SFAC Li O  S  Fe 
Li     1 -0.3017050000000 -0.3017050000000 -0.2057360000000 1.0  -0.05
Li     1  0.3017050000000  0.3017050000000  0.2057360000000 1.0  -0.05
Li     1  0.0000000000000  0.0000000000000 -0.5000000000000 1.0   0.05
O      2  0.5000000000000 -0.5000000000000  0.0000000000000 1.0   0.19
S      3  0.4221180000000 -0.1543390000000  0.3216730000000 1.0   0.09
S      3  0.1543390000000 -0.4221180000000 -0.3216730000000 1.0   0.09
S      3 -0.4221180000000  0.1543390000000 -0.3216730000000 1.0   0.09
S      3 -0.1543390000000  0.4221180000000  0.3216730000000 1.0   0.09
S      3  0.0000000000000  0.0000000000000  0.0000000000000 1.0  -0.00
Fe     4 -0.3007800000000 -0.3007800000000  0.1329200000000 1.0   2.25
Fe     4  0.3007800000000  0.3007800000000 -0.1329200000000 1.0   2.25
Fe     4 -0.5000000000000 -0.5000000000000 -0.5000000000000 1.0   2.15
END
