TITL LFSO-LiFe3S2O3-200909-183622-8f715f 0.0170 276.659064 -9.42247719E+003 18.7559 19.2685 18 (C2) n - 1
REM
REM Run started: Fri, 11 Sep 2020 22:04:20 +0100 in /lustre/scratch/uccabz1/launch_tmp/launcher_2020-09-10-14-16-56-852832
REM CASTEP 20.1 from code version af48c487+ pr-geom-scf-spinfix Tue Jun 2 15:39:59 2020 +0100
REM Functional Perdew Burke Ernzerhof Relativity Koelling-Harmon Dispersion off
REM Cut-off 340.0000 eV Grid scale 1.7500 Gmax 16.5316 1/A FBSC none
REM MP grid 4 4 2 Offset 0.000 0.000 0.000 No. kpts 10 Spacing 0.07
REM Total runtime: 100980 s
REM Overall efficiency: 75.1 %
REM
REM
REM
REM compiler GCC version 4.9.2
REM options -cpp -iprefix /lustre/shared/ucl/apps/gcc/4.9.2/bin/../lib/gcc/x86_64-unknown-linux-gnu/4.9.2/ -mtune=corei7 -march=x86-64 -g -Og
REM COMMAND_LINE
REM seed -12018510 -486113453 -450142097 1368598327 -1486047304 -1615628328 1876958459 -447064752 2075390450 382618918 -1364300963 1636853141
REM
REM S 3|1.8|5|6|7|30:31:32(qc=5)
REM O 2|1.5|12|13|15|20:21(qc=5)
REM Li 1|1.3|8|9|10|10U:20(qc=5)
REM Fe 3|2.2|2.0|1.0|8|9|10|40:41:32(qc=5)
REM 
CELL 1.54180    4.62783    4.62783   13.86008  104.72978  104.72978   81.74580
LATT -1
SFAC Li O  S  Fe 
Li     1  0.3940450000000  0.0283280000000  0.2461480000000 1.0  -0.01
Li     1 -0.0283280000000 -0.3940450000000 -0.2461480000000 1.0  -0.01
O      2 -0.3332810000000 -0.3766270000000 -0.0574910000000 1.0   0.25
O      2  0.3766270000000  0.3332810000000  0.0574910000000 1.0   0.25
O      2  0.0683080000000 -0.0793620000000  0.1348340000000 1.0   0.31
O      2  0.0793620000000 -0.0683080000000 -0.1348340000000 1.0   0.31
O      2 -0.2972580000000  0.3096500000000 -0.2565990000000 1.0   0.27
O      2 -0.3096500000000  0.2972580000000  0.2565990000000 1.0   0.27
S      3  0.1560420000000 -0.1750260000000  0.3623700000000 1.0   0.04
S      3  0.1750260000000 -0.1560420000000 -0.3623700000000 1.0   0.04
S      3 -0.4224720000000 -0.1613090000000  0.4580630000000 1.0  -0.01
S      3  0.1613090000000  0.4224720000000 -0.4580630000000 1.0  -0.01
Fe     4 -0.0001330000000  0.5421200000000  0.0441950000000 1.0   3.01
Fe     4 -0.5421200000000  0.0001330000000 -0.0441950000000 1.0   3.01
Fe     4 -0.4563270000000  0.0907620000000 -0.3838040000000 1.0   2.85
Fe     4 -0.0907620000000  0.4563270000000  0.3838040000000 1.0   2.85
Fe     4 -0.2492400000000  0.1895800000000  0.1228760000000 1.0   2.65
Fe     4 -0.1895800000000  0.2492400000000 -0.1228760000000 1.0   2.65
END
