TITL LFSO-LiFe3SO4-200908-233021-f2632a -0.0127 117.286884 -4.84606144E+003 8.87383 9.01810 9 (P3) n - 1
REM
REM Run started: Tue, 08 Sep 2020 23:57:54 +0100 in /lustre/scratch/uccabz1/launch_tmp/launcher_2020-09-08-22-30-19-840895
REM CASTEP 20.1 from code version af48c487+ pr-geom-scf-spinfix Tue Jun 2 15:39:59 2020 +0100
REM Functional Perdew Burke Ernzerhof Relativity Koelling-Harmon Dispersion off
REM Cut-off 340.0000 eV Grid scale 1.7500 Gmax 16.5316 1/A FBSC none
REM MP grid 3 4 4 Offset 0.000 0.000 0.000 No. kpts 24 Spacing 0.07
REM Total runtime: 1786.8 s
REM Overall efficiency: 94.2 %
REM
REM
REM
REM compiler GCC version 4.9.2
REM options -cpp -iprefix /lustre/shared/ucl/apps/gcc/4.9.2/bin/../lib/gcc/x86_64-unknown-linux-gnu/4.9.2/ -mtune=corei7 -march=x86-64 -g -Og
REM COMMAND_LINE
REM seed 647106785 -1375557078 2014081895 -243015677 2030475301 1146696741 -1456824784 96319410 -510504316 1726417955 -697813508 -11121306
REM
REM S 3|1.8|5|6|7|30:31:32(qc=5)
REM O 2|1.5|12|13|15|20:21(qc=5)
REM Li 1|1.3|8|9|10|10U:20(qc=5)
REM Fe 3|2.2|2.0|1.0|8|9|10|40:41:32(qc=5)
REM 
CELL 1.54180    5.29924    5.05537    5.05537  120.00000   90.00000   90.00000
LATT -1
SFAC Li O  S  Fe 
Li     1  0.3871420000000  0.3333330000000 -0.3333330000000 1.0  -0.02
O      2 -0.3420890000000  0.3639470000000  0.0257620000000 1.0   0.30
O      2 -0.3420890000000 -0.0257620000000  0.3381850000000 1.0   0.30
O      2 -0.3420890000000 -0.3381850000000 -0.3639470000000 1.0   0.30
O      2  0.0228480000000  0.3333330000000 -0.3333330000000 1.0   0.05
S      3  0.1316880000000 -0.0000000000000  0.0000000000000 1.0   0.06
Fe     4 -0.1645120000000 -0.3222490000000 -0.0054790000000 1.0   2.62
Fe     4 -0.1645120000000  0.0054790000000 -0.3167690000000 1.0   2.62
Fe     4 -0.1645120000000  0.3167690000000  0.3222490000000 1.0   2.62
END
