TITL LFSO-Li2Fe3SO3-200912-173450-0ef416 -0.0189 215.554778 -9.21493579E+003 -17.7050 18.1663 18 (Amm2) n - 1
REM
REM Run started: Sat, 12 Sep 2020 21:06:33 +0100 in /lustre/scratch/uccabz1/launch_tmp/launcher_2020-09-12-16-34-48-590143
REM CASTEP 20.1 from code version af48c487+ pr-geom-scf-spinfix Tue Jun 2 15:39:59 2020 +0100
REM Functional Perdew Burke Ernzerhof Relativity Koelling-Harmon Dispersion off
REM Cut-off 340.0000 eV Grid scale 1.7500 Gmax 16.5316 1/A FBSC none
REM MP grid 4 4 2 Offset 0.000 0.000 0.000 No. kpts 6 Spacing 0.07
REM Total runtime: 12956.1 s
REM Overall efficiency: 96.75 %
REM
REM
REM
REM compiler GCC version 4.9.2
REM options -cpp -iprefix /lustre/shared/ucl/apps/gcc/4.9.2/bin/../lib/gcc/x86_64-unknown-linux-gnu/4.9.2/ -mtune=corei7 -march=x86-64 -g -Og
REM COMMAND_LINE
REM seed -552838812 -891108838 -1671753915 -1707561254 -886738912 -1051621820 -1953181030 -2053473563 375693728 -647884999 -2097378312 1482301616
REM
REM S 3|1.8|5|6|7|30:31:32(qc=5)
REM O 2|1.5|12|13|15|20:21(qc=5)
REM Li 1|1.3|8|9|10|10U:20(qc=5)
REM Fe 3|2.2|2.0|1.0|8|9|10|40:41:32(qc=5)
REM 
CELL 1.54180    5.17844    5.17844    9.18164   90.00000   90.00000   61.10018
LATT -1
SFAC Li O  S  Fe 
Li     1  0.1682810000000  0.3804130000000  0.3718980000000 1.0   0.01
Li     1 -0.3804130000000 -0.1682810000000 -0.3718980000000 1.0   0.01
Li     1 -0.3804130000000 -0.1682810000000  0.3718980000000 1.0   0.01
Li     1  0.1682810000000  0.3804130000000 -0.3718980000000 1.0   0.01
O      2 -0.1632510000000 -0.4974490000000 -0.2090450000000 1.0  -0.23
O      2  0.4974490000000  0.1632510000000  0.2090450000000 1.0  -0.23
O      2  0.4974490000000  0.1632510000000 -0.2090450000000 1.0  -0.23
O      2 -0.1632510000000 -0.4974490000000  0.2090450000000 1.0  -0.23
O      2 -0.1772610000000 -0.5297670000000 -0.5000000000000 1.0  -0.06
O      2  0.5297670000000  0.1772610000000  0.5000000000000 1.0  -0.06
S      3  0.1648510000000 -0.1648510000000  0.3173530000000 1.0  -0.17
S      3  0.1648510000000 -0.1648510000000 -0.3173530000000 1.0  -0.17
Fe     4  0.1483920000000  0.1447100000000 -0.1342140000000 1.0  -3.02
Fe     4 -0.1447100000000 -0.1483920000000  0.1342140000000 1.0  -3.02
Fe     4 -0.1447100000000 -0.1483920000000 -0.1342140000000 1.0  -3.02
Fe     4  0.1483920000000  0.1447100000000  0.1342140000000 1.0  -3.02
Fe     4 -0.2890460000000  0.2890460000000  0.3417070000000 1.0  -2.14
Fe     4 -0.2890460000000  0.2890460000000 -0.3417070000000 1.0  -2.14
END
