TITL LFSO-Li2Fe4S2O3-200912-082804-93870a -0.0205 131.463293 -5.77439772E+003 -0.322411E-02 0.344062E-02 11 (Pmm2) n - 1
REM
REM Run started: Sat, 12 Sep 2020 10:52:06 +0100 in /lustre/scratch/uccabz1/launch_tmp/launcher_2020-09-12-07-28-01-699576
REM CASTEP 20.1 from code version af48c487+ pr-geom-scf-spinfix Tue Jun 2 15:39:59 2020 +0100
REM Functional Perdew Burke Ernzerhof Relativity Koelling-Harmon Dispersion off
REM Cut-off 340.0000 eV Grid scale 1.7500 Gmax 16.5316 1/A FBSC none
REM MP grid 5 3 2 Offset 0.000 0.000 0.000 No. kpts 6 Spacing 0.07
REM Total runtime: 8686.43 s
REM Overall efficiency: 93.4444 %
REM
REM
REM
REM compiler GCC version 4.9.2
REM options -cpp -iprefix /lustre/shared/ucl/apps/gcc/4.9.2/bin/../lib/gcc/x86_64-unknown-linux-gnu/4.9.2/ -mtune=corei7 -march=x86-64 -g -Og
REM COMMAND_LINE
REM seed -1431167394 975699258 -454678221 -1779383816 -2020766891 1177827197 -1096164159 -457306904 -417549147 -249700928 -64549646 42281273
REM
REM S 3|1.8|5|6|7|30:31:32(qc=5)
REM O 2|1.5|12|13|15|20:21(qc=5)
REM Li 1|1.3|8|9|10|10U:20(qc=5)
REM Fe 3|2.2|2.0|1.0|8|9|10|40:41:32(qc=5)
REM 
CELL 1.54180    3.17744    5.07465    8.15308   90.00000   90.00000   90.00000
LATT -1
SFAC Li O  S  Fe 
Li     1  0.0287050000000  0.2112900000000  0.0000000000000 1.0
Li     1  0.0287050000000 -0.2112900000000  0.0000000000000 1.0
O      2  0.4795420000000  0.0000000000000 -0.1498910000000 1.0
O      2  0.4795420000000  0.0000000000000  0.1498910000000 1.0
O      2 -0.4757500000000  0.0000000000000 -0.5000000000000 1.0
S      3 -0.0003830000000  0.5000000000000 -0.2479190000000 1.0
S      3 -0.0003830000000 -0.5000000000000  0.2479190000000 1.0
Fe     4 -0.4992030000000 -0.2380170000000  0.3253210000000 1.0
Fe     4 -0.4992030000000  0.2380170000000 -0.3253210000000 1.0
Fe     4 -0.4992030000000 -0.2380170000000 -0.3253210000000 1.0
Fe     4 -0.4992030000000  0.2380170000000  0.3253210000000 1.0
END
