TITL LFSO-Li4Fe2S2O3-200911-115731-bfd707 0.0596 179.132054 -4.44515406E+003 -7.98134 8.14241 11 (R3) n - 1
REM
REM Run started: Fri, 11 Sep 2020 16:55:13 +0100 in /lustre/scratch/uccabz1/launch_tmp/launcher_2020-09-11-10-57-30-040170
REM CASTEP 20.1 from code version af48c487+ pr-geom-scf-spinfix Tue Jun 2 15:39:59 2020 +0100
REM Functional Perdew Burke Ernzerhof Relativity Koelling-Harmon Dispersion off
REM Cut-off 340.0000 eV Grid scale 1.7500 Gmax 16.5316 1/A FBSC none
REM MP grid 3 3 3 Offset 0.000 0.000 0.000 No. kpts 6 Spacing 0.07
REM Total runtime: 20102.8 s
REM Overall efficiency: 97.3077 %
REM
REM
REM
REM compiler GCC version 4.9.2
REM options -cpp -iprefix /lustre/shared/ucl/apps/gcc/4.9.2/bin/../lib/gcc/x86_64-unknown-linux-gnu/4.9.2/ -mtune=corei7 -march=x86-64 -g -Og
REM COMMAND_LINE
REM seed -1567914408 2143184306 56193077 1609396304 980946054 881246828 -584614567 -1824814525 -1312726088 -1770890095 1845854162 -1119830119
REM
REM S 3|1.8|5|6|7|30:31:32(qc=5)
REM O 2|1.5|12|13|15|20:21(qc=5)
REM Li 1|1.3|8|9|10|10U:20(qc=5)
REM Fe 3|2.2|2.0|1.0|8|9|10|40:41:32(qc=5)
REM 
CELL 1.54180    7.18083    7.18083    7.18083   46.69636   46.69636   46.69636
LATT -1
SFAC Li O  S  Fe 
Li     1 -0.0124610000000 -0.2173070000000 -0.5013130000000 1.0   0.02
Li     1 -0.5013130000000 -0.0124610000000 -0.2173070000000 1.0   0.02
Li     1 -0.2173070000000 -0.5013130000000 -0.0124610000000 1.0   0.02
Li     1 -0.4841900000000 -0.4841900000000 -0.4841900000000 1.0  -0.00
O      2  0.1678710000000  0.4481980000000 -0.2580790000000 1.0  -0.21
O      2 -0.2580790000000  0.1678710000000  0.4481980000000 1.0  -0.21
O      2  0.4481980000000 -0.2580790000000  0.1678710000000 1.0  -0.21
S      3  0.2620900000000  0.2620900000000  0.2620900000000 1.0  -0.57
S      3  0.0194160000000  0.0194160000000  0.0194160000000 1.0  -0.24
Fe     4  0.1361600000000  0.1361600000000  0.1361600000000 1.0  -2.93
Fe     4  0.3797440000000  0.3797440000000  0.3797440000000 1.0  -3.67
END
