TITL LFSO-Li4Fe3S2O3-201001-141441-b26b1b 0.0216 824.559453 -1.06199844E+004 -19.9991 21.1241 24 (Cmm2) n - 1
REM
REM Run started: Fri, 02 Oct 2020 15:30:40 +0100 in /lustre/scratch/uccabz1/launch_tmp/launcher_2020-10-01-13-14-39-488312
REM CASTEP 20.1 from code version af48c487+ pr-geom-scf-spinfix Tue Jun 2 15:39:59 2020 +0100
REM Functional Perdew Burke Ernzerhof Relativity Koelling-Harmon Dispersion off
REM Cut-off 340.0000 eV Grid scale 1.7500 Gmax 16.5316 1/A FBSC none
REM MP grid 2 3 2 Offset 0.000 0.000 0.000 No. kpts 4 Spacing 0.07
REM Total runtime: 102543 s
REM Overall efficiency: 75.6667 %
REM
REM
REM
REM compiler GCC version 4.9.2
REM options -cpp -iprefix /lustre/shared/ucl/apps/gcc/4.9.2/bin/../lib/gcc/x86_64-unknown-linux-gnu/4.9.2/ -mtune=corei7 -march=x86-64 -g -Og
REM COMMAND_LINE
REM seed 1423412984 638229323 619306097 -689026712 481832566 -1436992640 -110104070 -943555858 -1593516770 -170709688 -449046458 -1393084684
REM
REM S 3|1.8|5|6|7|30:31:32(qc=5)
REM O 2|1.5|12|13|15|20:21(qc=5)
REM Li 1|1.3|8|9|10|10U:20(qc=5)
REM Fe 3|2.2|2.0|1.0|8|9|10|40:41:32(qc=5)
REM 
CELL 1.54180   19.66517    5.50492   12.43767   90.00000  142.23685   90.00000
LATT -1
SFAC Li O  S  Fe 
Li     1  0.2757950000000  0.4146290000000  0.1946820000000 1.0   0.08
Li     1 -0.2757950000000  0.4146290000000 -0.1946820000000 1.0   0.08
Li     1  0.0811120000000  0.4146290000000 -0.1946820000000 1.0   0.08
Li     1 -0.0811120000000  0.4146290000000  0.1946820000000 1.0   0.08
Li     1  0.4939270000000 -0.3155220000000 -0.4070340000000 1.0   0.04
Li     1 -0.4939270000000 -0.3155220000000  0.4070340000000 1.0   0.04
Li     1 -0.0990390000000 -0.3155220000000  0.4070340000000 1.0   0.04
Li     1  0.0990390000000 -0.3155220000000 -0.4070340000000 1.0   0.04
O      2  0.3803710000000 -0.3528310000000  0.3552510000000 1.0  -0.28
O      2 -0.3803710000000 -0.3528310000000 -0.3552510000000 1.0  -0.28
O      2  0.0251210000000 -0.3528310000000 -0.3552510000000 1.0  -0.28
O      2 -0.0251210000000 -0.3528310000000  0.3552510000000 1.0  -0.28
O      2  0.1723690000000  0.6496940000000 -0.0000000000000 1.0  -0.23
O      2 -0.1723690000000  0.6496940000000 -0.0000000000000 1.0  -0.23
S      3 -0.1721110000000  0.1251400000000  0.2324060000000 1.0  -0.19
S      3  0.1721110000000  0.1251400000000 -0.2324060000000 1.0  -0.19
S      3 -0.4045170000000  0.1251400000000 -0.2324060000000 1.0  -0.19
S      3  0.4045170000000  0.1251400000000  0.2324060000000 1.0  -0.19
Fe     4  0.2949220000000 -0.1486680000000  0.1695670000000 1.0  -2.83
Fe     4 -0.2949220000000 -0.1486680000000 -0.1695670000000 1.0  -2.83
Fe     4  0.1253550000000 -0.1486680000000 -0.1695670000000 1.0  -2.83
Fe     4 -0.1253550000000 -0.1486680000000  0.1695670000000 1.0  -2.83
Fe     4  0.5000000000000  0.1839840000000  0.5000000000000 1.0  -3.41
Fe     4  0.0000000000000  0.1839840000000 -0.5000000000000 1.0  -3.41
END
