TITL LFSO-LiFe3SO4-200908-233846-f1f2c9 0.0129 129.442363 -4.84441869E+003 -0.262847E-01 0.565886E-01 9 (Cm) n - 1
REM
REM Run started: Wed, 09 Sep 2020 08:39:04 +0100 in /lustre/scratch/uccabz1/launch_tmp/launcher_2020-09-08-22-38-45-102324
REM CASTEP 20.1 from code version af48c487+ pr-geom-scf-spinfix Tue Jun 2 15:39:59 2020 +0100
REM Functional Perdew Burke Ernzerhof Relativity Koelling-Harmon Dispersion off
REM Cut-off 340.0000 eV Grid scale 1.7500 Gmax 16.5316 1/A FBSC none
REM MP grid 4 4 4 Offset 0.000 0.000 0.000 No. kpts 32 Spacing 0.07
REM Total runtime: 33307.9 s
REM Overall efficiency: 96.9091 %
REM
REM
REM
REM compiler GCC version 4.9.2
REM options -cpp -iprefix /lustre/shared/ucl/apps/gcc/4.9.2/bin/../lib/gcc/x86_64-unknown-linux-gnu/4.9.2/ -mtune=corei7 -march=x86-64 -g -Og
REM COMMAND_LINE
REM seed -1862880429 -1647254327 -1567914408 1411555698 -2124823786 1510209520 1921325363 302728821 -1944314520 1944848784 1979899967 490816666
REM
REM S 3|1.8|5|6|7|30:31:32(qc=5)
REM O 2|1.5|12|13|15|20:21(qc=5)
REM Li 1|1.3|8|9|10|10U:20(qc=5)
REM Fe 3|2.2|2.0|1.0|8|9|10|40:41:32(qc=5)
REM 
CELL 1.54180    5.76956    5.34618    5.76624  117.61813  120.35865   90.00000
LATT -1
SFAC Li O  S  Fe 
Li     1  0.3547010000000 -0.0707140000000 -0.1414290000000 1.0  -0.00
O      2 -0.4816310000000 -0.3854770000000 -0.2474060000000 1.0  -0.00
O      2 -0.4816310000000  0.1380710000000 -0.2474060000000 1.0  -0.00
O      2  0.1623020000000 -0.1602110000000  0.1402690000000 1.0  -0.00
O      2  0.1623020000000  0.3004800000000  0.1402690000000 1.0  -0.00
S      3  0.8072050000000 -0.2625540000000  0.4748920000000 1.0  -0.00
Fe     4 -0.1624360000000  0.1658710000000 -0.1990450000000 1.0  -0.02
Fe     4 -0.1624360000000 -0.3649150000000 -0.1990450000000 1.0  -0.02
Fe     4  0.3579750000000  0.2227990000000  0.4455980000000 1.0   0.01
END
