TITL LFSO-Li6FeS2O2-200920-195557-e9c697 0.0608 510.293400 -7.08739486E+003 7.65097 8.18738 22 (Amm2) n - 1
REM
REM Run started: Mon, 21 Sep 2020 17:32:50 +0100 in /lustre/scratch/uccabz1/launch_tmp/launcher_2020-09-21-15-19-05-150138
REM CASTEP 20.1 from code version af48c487+ pr-geom-scf-spinfix Tue Jun 2 15:39:59 2020 +0100
REM Functional Perdew Burke Ernzerhof Relativity Koelling-Harmon Dispersion off
REM Cut-off 340.0000 eV Grid scale 1.7500 Gmax 16.5316 1/A FBSC none
REM MP grid 4 3 1 Offset 0.000 0.000 0.000 No. kpts 6 Spacing 0.07
REM Total runtime: 72984.3 s
REM Overall efficiency: 96.0833 %
REM
REM
REM
REM compiler GCC version 4.9.2
REM options -cpp -iprefix /lustre/shared/ucl/apps/gcc/4.9.2/bin/../lib/gcc/x86_64-unknown-linux-gnu/4.9.2/ -mtune=corei7 -march=x86-64 -g -Og
REM COMMAND_LINE
REM seed 190569112 1121021046 1843593420 -1913718026 -673104637 1626463169 1024823974 1396801279 -2144129676 -290187550 1015780293 1758746469
REM
REM S 3|1.8|5|6|7|30:31:32(qc=5)
REM O 2|1.5|12|13|15|20:21(qc=5)
REM Li 1|1.3|8|9|10|10U:20(qc=5)
REM Fe 3|2.2|2.0|1.0|8|9|10|40:41:32(qc=5)
REM 
CELL 1.54180    4.63021    5.91762   20.23693   90.00000   90.00000  113.03053
LATT -1
SFAC Li O  S  Fe 
Li     1  0.2814560000000  0.3119400000000 -0.1582270000000 1.0   0.01
Li     1 -0.0304840000000 -0.3119400000000  0.1582270000000 1.0   0.01
Li     1 -0.0304840000000 -0.3119400000000 -0.1582270000000 1.0   0.01
Li     1  0.2814560000000  0.3119400000000  0.1582270000000 1.0   0.01
Li     1  0.0709980000000 -0.4261560000000  0.2707050000000 1.0  -0.04
Li     1 -0.5028460000000  0.4261560000000 -0.2707050000000 1.0  -0.04
Li     1 -0.5028460000000  0.4261560000000  0.2707050000000 1.0  -0.04
Li     1  0.0709980000000 -0.4261560000000 -0.2707050000000 1.0  -0.04
Li     1 -0.1769260000000  0.3952620000000 -0.3685880000000 1.0  -0.02
Li     1 -0.5721880000000 -0.3952620000000  0.3685880000000 1.0  -0.02
Li     1 -0.5721880000000 -0.3952620000000 -0.3685880000000 1.0  -0.02
Li     1 -0.1769260000000  0.3952620000000  0.3685880000000 1.0  -0.02
O      2  0.1214450000000  0.3120530000000  0.3289330000000 1.0   0.13
O      2 -0.1906070000000 -0.3120530000000 -0.3289330000000 1.0   0.13
O      2 -0.1906070000000 -0.3120530000000  0.3289330000000 1.0   0.13
O      2  0.1214450000000  0.3120530000000 -0.3289330000000 1.0   0.13
S      3 -0.2311620000000  0.2730600000000  0.1932360000000 1.0   0.06
S      3  0.4957780000000 -0.2730600000000 -0.1932360000000 1.0   0.06
S      3  0.4957780000000 -0.2730600000000  0.1932360000000 1.0   0.06
S      3 -0.2311620000000  0.2730600000000 -0.1932360000000 1.0   0.06
Fe     4 -0.1491050000000  0.0000000000000 -0.2819550000000 1.0   3.53
Fe     4 -0.1491050000000  0.0000000000000  0.2819550000000 1.0   3.53
END
