TITL LFSO-Li2Fe3S3O-200912-161031-55130c 0.2225 139.418197 -4.33843940E+003 10.1645 10.2994 9 (C2/m) n - 1
REM
REM Run started: Sun, 13 Sep 2020 01:26:48 +0100 in /lustre/scratch/uccabz1/launch_tmp/launcher_2020-09-12-15-10-30-199666
REM CASTEP 20.1 from code version af48c487+ pr-geom-scf-spinfix Tue Jun 2 15:39:59 2020 +0100
REM Functional Perdew Burke Ernzerhof Relativity Koelling-Harmon Dispersion off
REM Cut-off 340.0000 eV Grid scale 1.7500 Gmax 16.5316 1/A FBSC none
REM MP grid 5 4 3 Offset 0.000 0.000 0.000 No. kpts 30 Spacing 0.07
REM Total runtime: 36382 s
REM Overall efficiency: 97.4615 %
REM
REM
REM
REM compiler GCC version 4.9.2
REM options -cpp -iprefix /lustre/shared/ucl/apps/gcc/4.9.2/bin/../lib/gcc/x86_64-unknown-linux-gnu/4.9.2/ -mtune=corei7 -march=x86-64 -g -Og
REM COMMAND_LINE
REM seed 1363488280 -163609814 895094508 1422040908 -1780092257 363863059 -72398053 1883212446 -387364878 -1605647704 1547021448 6320549
REM
REM S 3|1.8|5|6|7|30:31:32(qc=5)
REM O 2|1.5|12|13|15|20:21(qc=5)
REM Li 1|1.3|8|9|10|10U:20(qc=5)
REM Fe 3|2.2|2.0|1.0|8|9|10|40:41:32(qc=5)
REM 
CELL 1.54180    6.74123    6.74123    6.06906   74.19570  119.51018  143.29592
LATT -1
SFAC Li O  S  Fe 
Li     1 -0.3938750000000 -0.3199690000000  0.2861550000000 1.0  -0.04
Li     1  0.3938750000000  0.3199690000000 -0.2861550000000 1.0  -0.04
O      2 -0.5000000000000 -0.5000000000000  0.0000000000000 1.0   0.32
S      3  0.0124800000000  0.2690870000000  0.2815670000000 1.0   0.24
S      3 -0.0124800000000 -0.2690870000000 -0.2815670000000 1.0   0.24
S      3  0.5000000000000  0.0000000000000  0.5000000000000 1.0   0.18
Fe     4 -0.1435950000000  0.0626190000000 -0.0809750000000 1.0   3.38
Fe     4  0.1435950000000 -0.0626190000000  0.0809750000000 1.0   3.38
Fe     4  0.0000000000000 -0.5000000000000  0.5000000000000 1.0   2.50
END
