TITL LFSO-Li2Fe2SO2-200912-221027-30f8a3 0.0113 126.735999 -3.30531661E+003 6.39669 6.62729 7 (Immm) n - 1
REM
REM Run started: Sat, 12 Sep 2020 22:28:44 +0100 in /lustre/scratch/uccabz1/launch_tmp/launcher_2020-09-12-21-10-25-548718
REM CASTEP 20.1 from code version af48c487+ pr-geom-scf-spinfix Tue Jun 2 15:39:59 2020 +0100
REM Functional Perdew Burke Ernzerhof Relativity Koelling-Harmon Dispersion off
REM Cut-off 340.0000 eV Grid scale 1.7500 Gmax 16.5316 1/A FBSC none
REM MP grid 5 3 3 Offset 0.000 0.000 0.000 No. kpts 16 Spacing 0.07
REM Total runtime: 1473.95 s
REM Overall efficiency: 92.4 %
REM
REM
REM
REM compiler GCC version 4.9.2
REM options -cpp -iprefix /lustre/shared/ucl/apps/gcc/4.9.2/bin/../lib/gcc/x86_64-unknown-linux-gnu/4.9.2/ -mtune=corei7 -march=x86-64 -g -Og
REM COMMAND_LINE
REM seed 1236759597 -1036816083 1186392913 -7814498 598349416 -361129835 -1345139047 42821254 -1771549724 -611819784 -574306771 736817822
REM
REM S 3|1.8|5|6|7|30:31:32(qc=5)
REM O 2|1.5|12|13|15|20:21(qc=5)
REM Li 1|1.3|8|9|10|10U:20(qc=5)
REM Fe 3|2.2|2.0|1.0|8|9|10|40:41:32(qc=5)
REM 
CELL 1.54180    3.80938    6.10882    6.10882   76.15005   71.83268   71.83268
LATT -1
SFAC Li O  S  Fe 
Li     1 -0.5000000000000 -0.3401320000000  0.3401320000000 1.0  -0.05
Li     1  0.5000000000000  0.3401320000000 -0.3401320000000 1.0  -0.05
O      2  0.3403100000000 -0.3403100000000 -0.3403100000000 1.0   0.33
O      2 -0.3403100000000  0.3403100000000  0.3403100000000 1.0   0.33
S      3 -0.5000000000000 -0.0000000000000 -0.0000000000000 1.0   0.06
Fe     4 -0.1448940000000  0.1448940000000  0.1448940000000 1.0   2.89
Fe     4  0.1448940000000 -0.1448940000000 -0.1448940000000 1.0   2.89
END
