TITL LFSO-Li2Fe2SO3-200913-103720-786fcf -0.0761 346.971152 -1.12321960E+004 20.0529 20.6754 24 (P-1) n - 1
REM
REM Run started: Mon, 14 Sep 2020 18:15:10 +0100 in /lustre/scratch/uccabz1/launch_tmp/launcher_2020-09-14-05-20-40-781541
REM CASTEP 20.1 from code version af48c487+ pr-geom-scf-spinfix Tue Jun 2 15:39:59 2020 +0100
REM Functional Perdew Burke Ernzerhof Relativity Koelling-Harmon Dispersion off
REM Cut-off 340.0000 eV Grid scale 1.7500 Gmax 16.5316 1/A FBSC none
REM MP grid 3 3 2 Offset 0.000 0.000 0.000 No. kpts 9 Spacing 0.07
REM Total runtime: 90490.3 s
REM Overall efficiency: 98.75 %
REM
REM
REM
REM compiler GCC version 4.9.2
REM options -cpp -iprefix /lustre/shared/ucl/apps/gcc/4.9.2/bin/../lib/gcc/x86_64-unknown-linux-gnu/4.9.2/ -mtune=corei7 -march=x86-64 -g -Og
REM COMMAND_LINE
REM seed -1548555206 -1495851147 -892176769 385471459 -544846502 -1131918020 -1006489179 -157839320 -833545974 402771455 -477208725 -1753969782
REM
REM S 3|1.8|5|6|7|30:31:32(qc=5)
REM O 2|1.5|12|13|15|20:21(qc=5)
REM Li 1|1.3|8|9|10|10U:20(qc=5)
REM Fe 3|2.2|2.0|1.0|8|9|10|40:41:32(qc=5)
REM 
CELL 1.54180    7.00138    6.18474    8.84817   89.12125   79.83011   67.16655
LATT -1
SFAC Li O  S  Fe 
Li     1 -0.4522110000000  0.4745390000000 -0.2589760000000 1.0  -0.03
Li     1  0.4522110000000 -0.4745390000000  0.2589760000000 1.0  -0.03
Li     1  0.3465810000000 -0.6783270000000  0.0526400000000 1.0   0.00
Li     1 -0.3465810000000  0.6783270000000 -0.0526400000000 1.0   0.00
Li     1 -0.2099080000000  0.3051250000000  0.0945390000000 1.0  -0.01
Li     1  0.2099080000000 -0.3051250000000 -0.0945390000000 1.0  -0.01
O      2  0.0513840000000 -0.1720610000000 -0.2665660000000 1.0   0.29
O      2 -0.0513840000000  0.1720610000000  0.2665660000000 1.0   0.29
O      2 -0.3543810000000 -0.3357890000000  0.1638610000000 1.0   0.28
O      2  0.3543810000000  0.3357890000000 -0.1638610000000 1.0   0.28
O      2 -0.4406720000000  0.1987430000000  0.1684280000000 1.0   0.26
O      2  0.4406720000000 -0.1987430000000 -0.1684280000000 1.0   0.26
O      2 -0.2155520000000  0.3572320000000 -0.1246290000000 1.0   0.27
O      2  0.2155520000000 -0.3572320000000  0.1246290000000 1.0   0.27
O      2 -0.5000000000000  0.5000000000000 -0.5000000000000 1.0   0.30
S      3 -0.1041480000000 -0.2838050000000  0.4401030000000 1.0   0.03
S      3  0.1041480000000  0.2838050000000 -0.4401030000000 1.0   0.03
S      3  0.5000000000000  0.0000000000000  0.5000000000000 1.0  -0.11
Fe     4  0.3820200000000  0.0705210000000 -0.2518270000000 1.0   2.81
Fe     4 -0.3820200000000 -0.0705210000000  0.2518270000000 1.0   2.81
Fe     4  0.2028190000000 -0.3822230000000  0.5615730000000 1.0   3.43
Fe     4 -0.2028190000000  0.3822230000000 -0.5615730000000 1.0   3.43
Fe     4  0.0417910000000 -0.1399330000000  0.2566420000000 1.0   2.59
Fe     4 -0.0417910000000  0.1399330000000 -0.2566420000000 1.0   2.59
END
