TITL LFSO-Li4Fe3S2O3-201001-142152-f30b26 -0.0200 415.840649 -1.06236865E+004 23.7888 24.3043 24 (Cc) n - 1
REM
REM Run started: Fri, 02 Oct 2020 08:14:58 +0100 in /scratch/scratch/uccabz1/launch_tmp/launcher_2020-10-01-13-21-51-378861
REM CASTEP 19.11| from code version Version unavailable
REM Functional Perdew Burke Ernzerhof Relativity Koelling-Harmon Dispersion off
REM Cut-off 340.0000 eV Grid scale 1.7500 Gmax 16.5316 1/A FBSC none
REM MP grid 3 3 2 Offset 0.000 0.000 0.000 No. kpts 9 Spacing 0.07
REM Total runtime: 64586.8 s
REM Overall efficiency: 73.75 %
REM
REM
REM
REM compiler GCC version 4.9.2
REM options -cpp -iprefix /scratch/UCL/applications/gcc/4.9.2/bin/../lib/gcc/x86_64-unknown-linux-gnu/4.9.2/ -mtune=corei7 -march=x86-64 -g -O2
REM COMMAND_LINE
REM seed -2072056684 1403592639 -1811080867 -1987086374 1881172295 1463265007 2126982874 758655080 -369903737 -342649659 1875943926 2031279992
REM
REM S 3|1.8|5|6|7|30:31:32(qc=5)
REM O 2|1.5|12|13|15|20:21(qc=5)
REM Li 1|1.3|8|9|10|10U:20(qc=5)
REM Fe 3|2.2|2.0|1.0|8|9|10|40:41:32(qc=5)
REM 
CELL 1.54180    6.28556    6.28556   11.43031  108.12782  100.56911   95.77612
LATT -1
SFAC Li O  S  Fe 
Li     1 -0.3385620000000 -0.2432430000000  0.2383190000000 1.0  -0.04
Li     1 -0.0184380000000 -0.4231190000000 -0.2616810000000 1.0  -0.04
Li     1  0.0324610000000  0.3704140000000  0.4635170000000 1.0  -0.01
Li     1 -0.4068970000000 -0.5689430000000 -0.0364830000000 1.0  -0.01
Li     1  0.3781520000000  0.3396450000000  0.1933650000000 1.0   0.00
Li     1  0.3537200000000 -0.1847870000000 -0.3066350000000 1.0   0.00
Li     1 -0.7125850000000  0.2248380000000 -0.3562640000000 1.0   0.03
Li     1 -0.0811020000000  0.3563200000000  0.1437360000000 1.0   0.03
O      2 -0.3048060000000  0.1787780000000 -0.0152760000000 1.0   0.33
O      2  0.3059460000000  0.2895300000000  0.4847240000000 1.0   0.33
O      2 -0.5614270000000 -0.0410050000000 -0.4087730000000 1.0   0.32
O      2  0.1322320000000  0.1526540000000  0.0912270000000 1.0   0.32
O      2 -0.2572690000000 -0.2754700000000  0.0852500000000 1.0   0.32
O      2 -0.1392810000000  0.3425190000000 -0.4147500000000 1.0   0.32
S      3  0.3788740000000 -0.4195850000000 -0.1807820000000 1.0   0.20
S      3 -0.2611970000000  0.4403440000000  0.3192180000000 1.0   0.20
S      3  0.0019110000000 -0.0433760000000 -0.2739010000000 1.0   0.17
S      3  0.2694750000000 -0.2758130000000  0.2260990000000 1.0   0.17
Fe     4  0.0289390000000 -0.1297520000000  0.0991590000000 1.0   3.52
Fe     4 -0.2710900000000  0.0702200000000 -0.4008410000000 1.0   3.52
Fe     4  0.6192000000000 -0.1296420000000 -0.0320690000000 1.0   3.55
Fe     4 -0.4024260000000 -0.6512690000000  0.4679310000000 1.0   3.55
Fe     4 -0.0590270000000  0.0519500000000 -0.0758970000000 1.0   3.50
Fe     4  0.3721540000000 -0.0168700000000  0.4241030000000 1.0   3.50
END
