TITL LFSO-Li2Fe2S2O-200913-120416-f20ad5 0.1758 500.693955 -6.34404845E+003 -11.8743 12.3356 14 (P2221) n - 1
REM
REM Run started: Sun, 13 Sep 2020 16:10:02 +0100 in /lustre/scratch/uccabz1/launch_tmp/launcher_2020-09-13-11-04-15-118414
REM CASTEP 20.1 from code version af48c487+ pr-geom-scf-spinfix Tue Jun 2 15:39:59 2020 +0100
REM Functional Perdew Burke Ernzerhof Relativity Koelling-Harmon Dispersion off
REM Cut-off 340.0000 eV Grid scale 1.7500 Gmax 16.5316 1/A FBSC none
REM MP grid 2 2 3 Offset 0.000 0.000 0.000 No. kpts 2 Spacing 0.07
REM Total runtime: 16281.1 s
REM Overall efficiency: 92 %
REM
REM
REM
REM compiler GCC version 4.9.2
REM options -cpp -iprefix /lustre/shared/ucl/apps/gcc/4.9.2/bin/../lib/gcc/x86_64-unknown-linux-gnu/4.9.2/ -mtune=corei7 -march=x86-64 -g -Og
REM COMMAND_LINE
REM seed -267790109 -556660921 -1927580433 -1138811118 -1750611373 382553509 1769417308 -1803903884 1268936190 1390665369 1460546927 -122554355
REM
REM S 3|1.8|5|6|7|30:31:32(qc=5)
REM O 2|1.5|12|13|15|20:21(qc=5)
REM Li 1|1.3|8|9|10|10U:20(qc=5)
REM Fe 3|2.2|2.0|1.0|8|9|10|40:41:32(qc=5)
REM 
CELL 1.54180    9.82468    7.55134    6.74886   90.00000   90.00000   90.00000
LATT -1
SFAC Li O  S  Fe 
Li     1  0.3529830000000  0.0658540000000 -0.0475100000000 1.0  -0.01
Li     1 -0.3529830000000 -0.4341460000000  0.0475100000000 1.0  -0.01
Li     1  0.3529830000000  0.4341460000000  0.0475100000000 1.0  -0.01
Li     1 -0.3529830000000 -0.0658540000000 -0.0475100000000 1.0  -0.01
O      2 -0.5000000000000  0.0000000000000 -0.2299880000000 1.0  -0.14
O      2 -0.5000000000000 -0.5000000000000  0.2299880000000 1.0  -0.14
S      3 -0.3097150000000 -0.3388540000000 -0.2752430000000 1.0  -0.18
S      3  0.3097150000000  0.1611460000000  0.2752430000000 1.0  -0.18
S      3 -0.3097150000000 -0.1611460000000  0.2752430000000 1.0  -0.18
S      3  0.3097150000000  0.3388540000000 -0.2752430000000 1.0  -0.18
Fe     4  0.4037210000000  0.1002760000000 -0.4388580000000 1.0  -2.71
Fe     4 -0.4037210000000 -0.3997240000000  0.4388580000000 1.0  -2.71
Fe     4  0.4037210000000  0.3997240000000  0.4388580000000 1.0  -2.71
Fe     4 -0.4037210000000 -0.1002760000000 -0.4388580000000 1.0  -2.71
END
