TITL LFSO-Li4Fe2S3O-200911-010016-1417c9 -0.0061 186.708754 -3.87539161E+003 4.28304 4.66099 10 (C2/m) n - 1
REM
REM Run started: Fri, 11 Sep 2020 09:00:58 +0100 in /lustre/scratch/uccabz1/launch_tmp/launcher_2020-09-11-00-00-14-691760
REM CASTEP 20.1 from code version af48c487+ pr-geom-scf-spinfix Tue Jun 2 15:39:59 2020 +0100
REM Functional Perdew Burke Ernzerhof Relativity Koelling-Harmon Dispersion off
REM Cut-off 340.0000 eV Grid scale 1.7500 Gmax 16.5316 1/A FBSC none
REM MP grid 3 5 4 Offset 0.000 0.000 0.000 No. kpts 30 Spacing 0.07
REM Total runtime: 33360 s
REM Overall efficiency: 97.3333 %
REM
REM
REM
REM compiler GCC version 4.9.2
REM options -cpp -iprefix /lustre/shared/ucl/apps/gcc/4.9.2/bin/../lib/gcc/x86_64-unknown-linux-gnu/4.9.2/ -mtune=corei7 -march=x86-64 -g -Og
REM COMMAND_LINE
REM seed -1349312570 -1984963315 -322690287 -2132343904 2022680827 -1616583379 -20284994 1162675390 1494970681 2069914254 -1941018345 1019830966
REM
REM S 3|1.8|5|6|7|30:31:32(qc=5)
REM O 2|1.5|12|13|15|20:21(qc=5)
REM Li 1|1.3|8|9|10|10U:20(qc=5)
REM Fe 3|2.2|2.0|1.0|8|9|10|40:41:32(qc=5)
REM 
CELL 1.54180    7.67768    6.54535    6.80137  126.72721   89.99998  125.90899
LATT -1
SFAC Li O  S  Fe 
Li     1 -0.0207300000000 -0.3639480000000  0.2931330000000 1.0  -0.03
Li     1  0.3432180000000  0.3639480000000 -0.2931330000000 1.0  -0.03
Li     1  0.0207300000000  0.3639480000000 -0.2931330000000 1.0  -0.03
Li     1 -0.3432180000000 -0.3639480000000  0.2931330000000 1.0  -0.03
O      2  0.0000000000000  0.0000000000000  0.5000000000000 1.0   0.00
S      3 -0.2549450000000 -0.5098910000000 -0.2030790000000 1.0   0.07
S      3  0.2549450000000  0.5098910000000  0.2030790000000 1.0   0.07
S      3 -0.5000000000000  0.0000000000000  0.0000000000000 1.0   0.11
Fe     4  0.4909070000000 -0.0181870000000 -0.3284650000000 1.0   2.08
Fe     4 -0.4909070000000  0.0181870000000  0.3284650000000 1.0   2.08
END
