TITL LFSO-LiFe3S3O2-200909-135814-f43459 0.0102 388.802681 -9.15551426E+003 -0.302690 16.5229 18 (P3) n - 1
REM
REM Run started: Thu, 10 Sep 2020 07:49:47 +0100 in /lustre/scratch/uccabz1/launch_tmp/launcher_2020-09-10-06-28-49-741043
REM CASTEP 20.1 from code version af48c487+ pr-geom-scf-spinfix Tue Jun 2 15:39:59 2020 +0100
REM Functional Perdew Burke Ernzerhof Relativity Koelling-Harmon Dispersion off
REM Cut-off 340.0000 eV Grid scale 1.7500 Gmax 16.5316 1/A FBSC none
REM MP grid 3 2 2 Offset 0.000 0.000 0.000 No. kpts 6 Spacing 0.07
REM Total runtime: 61220.2 s
REM Overall efficiency: 98.4286 %
REM
REM
REM
REM compiler GCC version 4.9.2
REM options -cpp -iprefix /lustre/shared/ucl/apps/gcc/4.9.2/bin/../lib/gcc/x86_64-unknown-linux-gnu/4.9.2/ -mtune=corei7 -march=x86-64 -g -Og
REM COMMAND_LINE
REM seed 1834477168 -374120188 -131208124 -2007445760 2102508877 226864584 -1763525649 -1446363933 1613054752 322624596 -234950803 743719958
REM
REM S 3|1.8|5|6|7|30:31:32(qc=5)
REM O 2|1.5|12|13|15|20:21(qc=5)
REM Li 1|1.3|8|9|10|10U:20(qc=5)
REM Fe 3|2.2|2.0|1.0|8|9|10|40:41:32(qc=5)
REM 
CELL 1.54180    6.39517    8.37864    8.37864  120.00000   90.00000   90.00000
LATT -1
SFAC Li O  S  Fe 
Li     1  0.2105230000000  0.3333330000000 -0.3333330000000 1.0   0.03
Li     1 -0.0194090000000 -0.0000000000000  0.0000000000000 1.0  -0.02
O      2 -0.3345440000000 -0.0150650000000  0.2456880000000 1.0  -0.00
O      2 -0.3345440000000  0.2607520000000  0.0150650000000 1.0  -0.00
O      2 -0.3345440000000 -0.2456880000000 -0.2607520000000 1.0  -0.00
O      2 -0.0680240000000  0.3333330000000 -0.3333330000000 1.0   0.09
S      3 -0.4280530000000 -0.4521900000000 -0.0742920000000 1.0   0.00
S      3 -0.4280530000000  0.3778980000000  0.4521900000000 1.0   0.00
S      3 -0.4280530000000  0.0742920000000 -0.3778980000000 1.0   0.00
S      3  0.1173340000000 -0.3014370000000 -0.2622340000000 1.0  -0.09
S      3  0.1173340000000  0.0392030000000  0.3014370000000 1.0  -0.09
S      3  0.1173340000000  0.2622340000000 -0.0392030000000 1.0  -0.09
Fe     4  0.4390690000000  0.2845030000000 -0.0922480000000 1.0  -2.54
Fe     4  0.4390690000000 -0.3767520000000 -0.2845030000000 1.0  -2.54
Fe     4  0.4390690000000  0.0922480000000  0.3767520000000 1.0  -2.54
Fe     4 -0.1921770000000  0.3000000000000 -0.1450490000000 1.0   2.49
Fe     4 -0.1921770000000  0.5549490000000 -0.3000000000000 1.0   2.49
Fe     4 -0.1921770000000  0.1450490000000 -0.5549490000000 1.0   2.49
END
