TITL LFSO-Li2Fe2SO2-200912-224732-7bd01e 0.0087 179.634378 -6.61377357E+003 16.0000 16.0918 14 (Fdd2) n - 1
REM
REM Run started: Sun, 13 Sep 2020 01:28:24 +0100 in /lustre/scratch/uccabz1/launch_tmp/launcher_2020-09-12-21-47-31-134787
REM CASTEP 20.1 from code version af48c487+ pr-geom-scf-spinfix Tue Jun 2 15:39:59 2020 +0100
REM Functional Perdew Burke Ernzerhof Relativity Koelling-Harmon Dispersion off
REM Cut-off 340.0000 eV Grid scale 1.7500 Gmax 16.5316 1/A FBSC none
REM MP grid 3 3 4 Offset 0.000 0.000 0.000 No. kpts 12 Spacing 0.07
REM Total runtime: 9998.23 s
REM Overall efficiency: 96.875 %
REM
REM
REM
REM compiler GCC version 4.9.2
REM options -cpp -iprefix /lustre/shared/ucl/apps/gcc/4.9.2/bin/../lib/gcc/x86_64-unknown-linux-gnu/4.9.2/ -mtune=corei7 -march=x86-64 -g -Og
REM COMMAND_LINE
REM seed -1198009790 -969775346 587342320 -907702114 299883136 191620991 -1066817588 595555298 -1826815540 1778685705 -82704564 113982133
REM
REM S 3|1.8|5|6|7|30:31:32(qc=5)
REM O 2|1.5|12|13|15|20:21(qc=5)
REM Li 1|1.3|8|9|10|10U:20(qc=5)
REM Fe 3|2.2|2.0|1.0|8|9|10|40:41:32(qc=5)
REM 
CELL 1.54180    6.39058    6.39058    6.26129  119.72653  119.72653   91.62408
LATT -1
SFAC Li O  S  Fe 
Li     1 -0.4924800000000 -0.1139040000000 -0.3029440000000 1.0  -0.00
Li     1  0.1139040000000  0.4924800000000  0.3029440000000 1.0  -0.00
Li     1  0.5609600000000  0.4395370000000  0.1970560000000 1.0  -0.00
Li     1 -0.4395370000000 -0.5609600000000 -0.1970560000000 1.0  -0.00
O      2  0.3228040000000 -0.3216220000000  0.2523900000000 1.0   0.32
O      2  0.3216220000000 -0.3228040000000 -0.2523900000000 1.0   0.32
O      2  0.3240120000000  0.1795860000000 -0.2476100000000 1.0   0.32
O      2 -0.1795860000000 -0.3240120000000  0.2476100000000 1.0   0.32
S      3 -0.0518800000000  0.0518800000000 -0.0000000000000 1.0   0.23
S      3 -0.3018800000000  0.3018800000000 -0.5000000000000 1.0   0.23
Fe     4 -0.4433260000000 -0.1344070000000  0.2119260000000 1.0   3.57
Fe     4  0.1344070000000  0.4433260000000 -0.2119260000000 1.0   3.57
Fe     4  0.0963330000000 -0.0947480000000 -0.2880740000000 1.0   3.57
Fe     4  0.0947480000000 -0.0963330000000  0.2880740000000 1.0   3.57
END
