TITL LFSO-Li3Fe3S5O-200928-193508-095563 0.0364 198.318780 -5.14302422E+003 5.26638 11.7256 12 (I-4) n - 1
REM
REM Run started: Tue, 29 Sep 2020 01:09:47 +0100 in /lustre/scratch/uccabz1/launch_tmp/launcher_2020-09-28-18-35-06-125600
REM CASTEP 20.1 from code version af48c487+ pr-geom-scf-spinfix Tue Jun 2 15:39:59 2020 +0100
REM Functional Perdew Burke Ernzerhof Relativity Koelling-Harmon Dispersion off
REM Cut-off 340.0000 eV Grid scale 1.7500 Gmax 16.5316 1/A FBSC none
REM MP grid 4 4 2 Offset 0.000 0.000 0.000 No. kpts 14 Spacing 0.07
REM Total runtime: 20806.9 s
REM Overall efficiency: 97.2857 %
REM
REM
REM
REM compiler GCC version 4.9.2
REM options -cpp -iprefix /lustre/shared/ucl/apps/gcc/4.9.2/bin/../lib/gcc/x86_64-unknown-linux-gnu/4.9.2/ -mtune=corei7 -march=x86-64 -g -Og
REM COMMAND_LINE
REM seed -598300978 -1864720655 1206221645 -1907855371 617926496 -105158288 908069768 -71739413 233432393 -1584129928 1897171484 2033245365
REM
REM S 3|1.8|5|6|7|30:31:32(qc=5)
REM O 2|1.5|12|13|15|20:21(qc=5)
REM Li 1|1.3|8|9|10|10U:20(qc=5)
REM Fe 3|2.2|2.0|1.0|8|9|10|40:41:32(qc=5)
REM 
CELL 1.54180    4.98879    4.98879    8.71436  106.63291  106.63291   90.00000
LATT -1
SFAC Li O  S  Fe 
Li     1 -0.2719330000000 -0.2719330000000  0.4561340000000 1.0   0.06
Li     1  0.2719330000000  0.2719330000000 -0.4561340000000 1.0   0.06
Li     1 -0.2500000000000  0.2500000000000 -0.5000000000000 1.0   0.02
O      2  0.0000000000000  0.0000000000000  0.0000000000000 1.0   0.79
S      3 -0.0416000000000 -0.0801420000000  0.3174530000000 1.0  -0.08
S      3  0.3590530000000  0.3975950000000  0.3174530000000 1.0  -0.08
S      3  0.0801420000000 -0.3590530000000 -0.3174530000000 1.0  -0.08
S      3 -0.3975950000000  0.0416000000000 -0.3174530000000 1.0  -0.08
S      3  0.5000000000000  0.5000000000000  0.0000000000000 1.0   0.28
Fe     4  0.0467910000000 -0.4532090000000  0.0935830000000 1.0   3.66
Fe     4  0.4532090000000 -0.0467910000000 -0.0935830000000 1.0   3.66
Fe     4  0.2500000000000 -0.2500000000000  0.5000000000000 1.0  -2.92
END
