TITL LFSO-Li4FeSO2-200910-085309-7c298a 0.0147 87.076848 -2.84346634E+003 3.14479 3.36909 8 (Immm) n - 1
REM
REM Run started: Thu, 10 Sep 2020 09:40:41 +0100 in /lustre/scratch/uccabz1/launch_tmp/launcher_2020-09-10-07-53-08-163673
REM CASTEP 20.1 from code version af48c487+ pr-geom-scf-spinfix Tue Jun 2 15:39:59 2020 +0100
REM Functional Perdew Burke Ernzerhof Relativity Koelling-Harmon Dispersion off
REM Cut-off 340.0000 eV Grid scale 1.7500 Gmax 16.5316 1/A FBSC none
REM MP grid 6 5 5 Offset 0.000 0.000 0.000 No. kpts 45 Spacing 0.07
REM Total runtime: 3266.96 s
REM Overall efficiency: 93.5 %
REM
REM
REM
REM compiler GCC version 4.9.2
REM options -cpp -iprefix /lustre/shared/ucl/apps/gcc/4.9.2/bin/../lib/gcc/x86_64-unknown-linux-gnu/4.9.2/ -mtune=corei7 -march=x86-64 -g -Og
REM COMMAND_LINE
REM seed 1633595642 -857374452 605820468 60953298 673465374 -831109327 895491707 -2095464620 990390803 572940097 -2052095230 730104967
REM
REM S 3|1.8|5|6|7|30:31:32(qc=5)
REM O 2|1.5|12|13|15|20:21(qc=5)
REM Li 1|1.3|8|9|10|10U:20(qc=5)
REM Fe 3|2.2|2.0|1.0|8|9|10|40:41:32(qc=5)
REM 
CELL 1.54180    5.14562    5.99095    5.99095  118.75385   64.56737   64.56737
LATT -1
SFAC Li O  S  Fe 
Li     1  0.4457220000000 -0.3507060000000 -0.0336820000000 1.0  -0.03
Li     1 -0.0613340000000 -0.0336820000000 -0.3507060000000 1.0  -0.03
Li     1  0.4457220000000 -0.0336820000000 -0.3507060000000 1.0  -0.03
Li     1 -0.0613340000000 -0.3507060000000 -0.0336820000000 1.0  -0.03
O      2 -0.3085140000000  0.4889460000000  0.1280820000000 1.0   0.14
O      2 -0.3085140000000  0.1280820000000  0.4889460000000 1.0   0.14
S      3  0.1907110000000  0.3092890000000  0.3092890000000 1.0   0.09
Fe     4  0.6917860000000 -0.6917860000000 -0.6917860000000 1.0   2.90
END
