TITL LFSO-Li2Fe3SO3-200912-124345-c3b3d6 -0.0233 228.858164 -9.21739805E+003 15.9534 16.4020 18 (Cc) n - 1
REM
REM Run started: Sun, 13 Sep 2020 11:11:19 +0100 in /lustre/scratch/uccabz1/launch_tmp/launcher_2020-09-12-11-43-43-300322
REM CASTEP 20.1 from code version af48c487+ pr-geom-scf-spinfix Tue Jun 2 15:39:59 2020 +0100
REM Functional Perdew Burke Ernzerhof Relativity Koelling-Harmon Dispersion off
REM Cut-off 340.0000 eV Grid scale 1.7500 Gmax 16.5316 1/A FBSC none
REM MP grid 3 4 4 Offset 0.000 0.000 0.000 No. kpts 16 Spacing 0.07
REM Total runtime: 81261.1 s
REM Overall efficiency: 93.5385 %
REM
REM
REM
REM compiler GCC version 4.9.2
REM options -cpp -iprefix /lustre/shared/ucl/apps/gcc/4.9.2/bin/../lib/gcc/x86_64-unknown-linux-gnu/4.9.2/ -mtune=corei7 -march=x86-64 -g -Og
REM COMMAND_LINE
REM seed 575354716 -1876797945 1079497381 -1360901742 100301723 2039427848 1264066014 -490242738 90884362 -1819458455 -1879729325 755764212
REM
REM S 3|1.8|5|6|7|30:31:32(qc=5)
REM O 2|1.5|12|13|15|20:21(qc=5)
REM Li 1|1.3|8|9|10|10U:20(qc=5)
REM Fe 3|2.2|2.0|1.0|8|9|10|40:41:32(qc=5)
REM 
CELL 1.54180    6.43364    9.33389    9.33389  148.52457   99.73296   99.73296
LATT -1
SFAC Li O  S  Fe 
Li     1 -0.4296820000000  0.0229680000000 -0.3863660000000 1.0  -0.01
Li     1  0.0703180000000 -0.3863660000000  0.0229680000000 1.0  -0.01
Li     1 -0.2261260000000 -0.0781480000000  0.3510650000000 1.0  -0.00
Li     1  0.2738740000000  0.3510650000000 -0.0781480000000 1.0  -0.00
O      2 -0.1011120000000  0.2499260000000  0.4801280000000 1.0   0.20
O      2  0.3988880000000  0.4801280000000  0.2499260000000 1.0   0.20
O      2  0.2722040000000 -0.0486180000000 -0.3835930000000 1.0   0.20
O      2 -0.2277960000000 -0.3835930000000 -0.0486180000000 1.0   0.20
O      2 -0.0593920000000 -0.7404980000000 -0.1539920000000 1.0   0.22
O      2 -0.5593920000000 -0.1539920000000 -0.7404980000000 1.0   0.22
S      3 -0.2688980000000  0.0991180000000  0.0082560000000 1.0   0.07
S      3  0.2311020000000  0.0082560000000  0.0991180000000 1.0   0.07
Fe     4  0.5078740000000 -0.4620440000000 -0.4962340000000 1.0   2.03
Fe     4  0.0078740000000 -0.4962340000000 -0.4620440000000 1.0   2.03
Fe     4 -0.4333570000000  0.2197250000000 -0.5255140000000 1.0   2.92
Fe     4  0.0666430000000 -0.5255140000000  0.2197250000000 1.0   2.92
Fe     4  0.3312310000000  0.0457460000000 -0.1053790000000 1.0   2.34
Fe     4 -0.1687690000000 -0.1053790000000  0.0457460000000 1.0   2.34
END
