TITL LFSO-Li2FeSO-200912-062930-f2128d -0.0170 56.234056 -2.00534333E+003 0.742884E-05 0.109631E-04 5 (R3m) n - 1
REM
REM Run started: Sat, 12 Sep 2020 06:51:32 +0100 in /lustre/scratch/uccabz1/launch_tmp/launcher_2020-09-12-05-29-28-088404
REM CASTEP 20.1 from code version af48c487+ pr-geom-scf-spinfix Tue Jun 2 15:39:59 2020 +0100
REM Functional Perdew Burke Ernzerhof Relativity Koelling-Harmon Dispersion off
REM Cut-off 340.0000 eV Grid scale 1.7500 Gmax 16.5316 1/A FBSC none
REM MP grid 6 6 3 Offset 0.000 0.000 0.000 No. kpts 33 Spacing 0.07
REM Total runtime: 1381.24 s
REM Overall efficiency: 86.4286 %
REM
REM
REM
REM compiler GCC version 4.9.2
REM options -cpp -iprefix /lustre/shared/ucl/apps/gcc/4.9.2/bin/../lib/gcc/x86_64-unknown-linux-gnu/4.9.2/ -mtune=corei7 -march=x86-64 -g -Og
REM COMMAND_LINE
REM seed -29538600 -886920060 -1407246108 -70620787 837977587 -1105494270 1331040109 -1906003875 -250871784 938803776 1062406755 1116270770
REM
REM S 3|1.8|5|6|7|30:31:32(qc=5)
REM O 2|1.5|12|13|15|20:21(qc=5)
REM Li 1|1.3|8|9|10|10U:20(qc=5)
REM Fe 3|2.2|2.0|1.0|8|9|10|40:41:32(qc=5)
REM 
CELL 1.54180    3.31923    3.31923    6.19752   74.46737   74.46737   60.00000
LATT -1
SFAC Li O  S  Fe 
Li     1  0.1178910000000  0.1178910000000  0.6463280000000 1.0
Li     1 -0.4694970000000 -0.4694970000000  0.4084910000000 1.0
O      2 -0.1505430000000 -0.1505430000000 -0.5483720000000 1.0
S      3  0.3485720000000  0.3485720000000 -0.0457160000000 1.0
Fe     4 -0.0390100000000 -0.0390100000000  0.1170290000000 1.0
END
