TITL LFSO-Li2Fe3SO3-200912-145328-4e3826 -0.0464 172.218825 -4.60731966E+003 8.04707 8.56095 9 (P3m1) n - 1
REM
REM Run started: Sat, 12 Sep 2020 16:39:06 +0100 in /lustre/scratch/uccabz1/launch_tmp/launcher_2020-09-12-13-53-26-335648
REM CASTEP 20.1 from code version af48c487+ pr-geom-scf-spinfix Tue Jun 2 15:39:59 2020 +0100
REM Functional Perdew Burke Ernzerhof Relativity Koelling-Harmon Dispersion off
REM Cut-off 340.0000 eV Grid scale 1.7500 Gmax 16.5316 1/A FBSC none
REM MP grid 3 3 4 Offset 0.000 0.000 0.000 No. kpts 10 Spacing 0.07
REM Total runtime: 6377.82 s
REM Overall efficiency: 85 %
REM
REM
REM
REM compiler GCC version 4.9.2
REM options -cpp -iprefix /lustre/shared/ucl/apps/gcc/4.9.2/bin/../lib/gcc/x86_64-unknown-linux-gnu/4.9.2/ -mtune=corei7 -march=x86-64 -g -Og
REM COMMAND_LINE
REM seed -1471411743 -469573112 348769594 1024021343 -1594434638 -2121899986 1967393197 1587564549 -1803310855 1640271371 1717952340 2016663406
REM
REM S 3|1.8|5|6|7|30:31:32(qc=5)
REM O 2|1.5|12|13|15|20:21(qc=5)
REM Li 1|1.3|8|9|10|10U:20(qc=5)
REM Fe 3|2.2|2.0|1.0|8|9|10|40:41:32(qc=5)
REM 
CELL 1.54180    6.50348    6.50348    4.70173   90.00000   90.00000  120.00000
LATT -1
SFAC Li O  S  Fe 
Li     1 -0.3333330000000  0.3333330000000  0.4967490000000 1.0  -0.18
Li     1  0.3333330000000 -0.3333330000000  0.1656580000000 1.0   0.03
O      2  0.1789400000000 -0.1787290000000  0.0369860000000 1.0   0.24
O      2 -0.3576700000000 -0.1789400000000  0.0369860000000 1.0   0.24
O      2  0.1787290000000  0.3576700000000  0.0369860000000 1.0   0.24
S      3 -0.3333330000000  0.3333330000000 -0.0034870000000 1.0  -0.04
Fe     4  0.2552100000000  0.1276510000000  0.0364780000000 1.0   2.51
Fe     4 -0.1275590000000 -0.2552100000000  0.0364780000000 1.0   2.51
Fe     4 -0.1276510000000  0.1275590000000  0.0364780000000 1.0   2.51
END
