TITL LFSO-LiFeSO-200909-034741-14f52e -0.0041 219.811406 -5.41229174E+003 -0.799793E-01 0.843935 12 (Imm2) n - 1
REM
REM Run started: Wed, 09 Sep 2020 14:53:06 +0100 in /lustre/scratch/uccabz1/launch_tmp/launcher_2020-09-09-02-47-39-153667
REM CASTEP 20.1 from code version af48c487+ pr-geom-scf-spinfix Tue Jun 2 15:39:59 2020 +0100
REM Functional Perdew Burke Ernzerhof Relativity Koelling-Harmon Dispersion off
REM Cut-off 340.0000 eV Grid scale 1.7500 Gmax 16.5316 1/A FBSC none
REM MP grid 4 3 2 Offset 0.000 0.000 0.000 No. kpts 12 Spacing 0.07
REM Total runtime: 42177.9 s
REM Overall efficiency: 97.8182 %
REM
REM
REM
REM compiler GCC version 4.9.2
REM options -cpp -iprefix /lustre/shared/ucl/apps/gcc/4.9.2/bin/../lib/gcc/x86_64-unknown-linux-gnu/4.9.2/ -mtune=corei7 -march=x86-64 -g -Og
REM COMMAND_LINE
REM seed 1032533628 -1252578996 446772594 1805384165 -553608274 -1037272552 1762996657 -1522940732 546048089 1033228428 -2123733161 1799679852
REM
REM S 3|1.8|5|6|7|30:31:32(qc=5)
REM O 2|1.5|12|13|15|20:21(qc=5)
REM Li 1|1.3|8|9|10|10U:20(qc=5)
REM Fe 3|2.2|2.0|1.0|8|9|10|40:41:32(qc=5)
REM 
CELL 1.54180    3.66272    5.99480   10.61042  106.43257   99.97621   89.87028
LATT -1
SFAC Li O  S  Fe 
Li     1 -0.4277080000000 -0.1491660000000  0.1445300000000 1.0  -0.01
Li     1 -0.4277620000000  0.2936970000000  0.1445300000000 1.0  -0.01
Li     1 -0.0858830000000  0.4141170000000 -0.1717660000000 1.0  -0.00
O      2  0.2666000000000  0.0145430000000 -0.4671350000000 1.0  -0.02
O      2  0.2662650000000 -0.4816770000000 -0.4671350000000 1.0  -0.02
O      2 -0.1753760000000  0.3246240000000 -0.3507530000000 1.0   0.02
S      3  0.0004120000000  0.1781620000000 -0.0002350000000 1.0  -0.00
S      3 -0.0006470000000 -0.1783980000000 -0.0002350000000 1.0  -0.00
S      3 -0.3304460000000  0.1695540000000  0.3391070000000 1.0  -0.10
Fe     4 -0.2431370000000  0.0522580000000  0.5141960000000 1.0   0.05
Fe     4 -0.2426670000000 -0.5380620000000  0.5141960000000 1.0   0.05
Fe     4  0.2252860000000 -0.2747140000000  0.4505720000000 1.0  -0.05
END
