TITL LFSO-Li3FeS2O-200911-180635-ed75be -0.0120 484.437134 -5.01566140E+003 -6.08010 6.82352 14 (P-4) n - 1
REM
REM Run started: Fri, 11 Sep 2020 20:25:07 +0100 in /lustre/scratch/uccabz1/launch_tmp/launcher_2020-09-11-17-06-33-165990
REM CASTEP 20.1 from code version af48c487+ pr-geom-scf-spinfix Tue Jun 2 15:39:59 2020 +0100
REM Functional Perdew Burke Ernzerhof Relativity Koelling-Harmon Dispersion off
REM Cut-off 340.0000 eV Grid scale 1.7500 Gmax 16.5316 1/A FBSC none
REM MP grid 3 3 2 Offset 0.000 0.000 0.000 No. kpts 3 Spacing 0.07
REM Total runtime: 8392.53 s
REM Overall efficiency: 93 %
REM
REM
REM
REM compiler GCC version 4.9.2
REM options -cpp -iprefix /lustre/shared/ucl/apps/gcc/4.9.2/bin/../lib/gcc/x86_64-unknown-linux-gnu/4.9.2/ -mtune=corei7 -march=x86-64 -g -Og
REM COMMAND_LINE
REM seed 1848792450 771149424 533323671 -554828782 -1553692893 -1762751723 -1749784241 -935152961 -1790716269 999155339 1380995432 1490384035
REM
REM S 3|1.8|5|6|7|30:31:32(qc=5)
REM O 2|1.5|12|13|15|20:21(qc=5)
REM Li 1|1.3|8|9|10|10U:20(qc=5)
REM Fe 3|2.2|2.0|1.0|8|9|10|40:41:32(qc=5)
REM 
CELL 1.54180    6.57584    6.57584   11.20301   90.00000   90.00000   90.00000
LATT -1
SFAC Li O  S  Fe 
Li     1  0.1770400000000  0.3473540000000 -0.3972100000000 1.0   0.02
Li     1 -0.1770400000000 -0.3473540000000 -0.3972100000000 1.0   0.02
Li     1 -0.3473540000000  0.1770400000000  0.3972100000000 1.0   0.02
Li     1  0.3473540000000 -0.1770400000000  0.3972100000000 1.0   0.02
Li     1 -0.5000000000000 -0.5000000000000  0.1683120000000 1.0  -0.07
Li     1  0.5000000000000  0.5000000000000 -0.1683120000000 1.0  -0.07
O      2  0.0000000000000 -0.5000000000000  0.5108850000000 1.0  -0.17
O      2  0.5000000000000  0.0000000000000 -0.5108850000000 1.0  -0.17
S      3 -0.2040870000000  0.3413640000000  0.2356010000000 1.0  -0.10
S      3  0.2040870000000 -0.3413640000000  0.2356010000000 1.0  -0.10
S      3 -0.3413640000000 -0.2040870000000 -0.2356010000000 1.0  -0.10
S      3  0.3413640000000  0.2040870000000 -0.2356010000000 1.0  -0.10
Fe     4  0.0000000000000 -0.5000000000000  0.3524450000000 1.0  -2.63
Fe     4 -0.5000000000000  0.0000000000000 -0.3524450000000 1.0  -2.63
END
