TITL LFSO-Li4Fe3S2O3-201001-115332-a97ec0 -0.1717 439.971292 -1.06237301E+004 -19.9476 20.5808 24 (P21) n - 1
REM
REM Run started: Fri, 02 Oct 2020 09:52:02 +0100 in /lustre/scratch/uccabz1/launch_tmp/launcher_2020-10-01-10-53-29-839910
REM CASTEP 20.1 from code version af48c487+ pr-geom-scf-spinfix Tue Jun 2 15:39:59 2020 +0100
REM Functional Perdew Burke Ernzerhof Relativity Koelling-Harmon Dispersion off
REM Cut-off 340.0000 eV Grid scale 1.7500 Gmax 16.5316 1/A FBSC none
REM MP grid 3 3 2 Offset 0.000 0.000 0.000 No. kpts 6 Spacing 0.07
REM Total runtime: 85586 s
REM Overall efficiency: 92.25 %
REM
REM
REM
REM compiler GCC version 4.9.2
REM options -cpp -iprefix /lustre/shared/ucl/apps/gcc/4.9.2/bin/../lib/gcc/x86_64-unknown-linux-gnu/4.9.2/ -mtune=corei7 -march=x86-64 -g -Og
REM COMMAND_LINE
REM seed -1060919906 -54698141 1146428725 -66729285 2058221349 754998780 -723529881 32419173 -224269781 1947129770 1054544764 1631205349
REM
REM S 3|1.8|5|6|7|30:31:32(qc=5)
REM O 2|1.5|12|13|15|20:21(qc=5)
REM Li 1|1.3|8|9|10|10U:20(qc=5)
REM Fe 3|2.2|2.0|1.0|8|9|10|40:41:32(qc=5)
REM 
CELL 1.54180    6.96662    6.94794    9.16079   90.00000   82.85416   90.00000
LATT -1
SFAC Li O  S  Fe 
Li     1  0.3187760000000  0.0976100000000  0.3137680000000 1.0  -0.01
Li     1 -0.3187760000000 -0.4023900000000 -0.3137680000000 1.0  -0.01
Li     1  0.2396470000000  0.2075650000000  0.0027760000000 1.0   0.06
Li     1 -0.2396470000000 -0.2924350000000 -0.0027760000000 1.0   0.06
Li     1  0.0982270000000 -0.4349130000000  0.1264630000000 1.0   0.11
Li     1 -0.0982270000000  0.0650870000000 -0.1264630000000 1.0   0.11
Li     1  0.0317120000000 -0.5971760000000 -0.5026680000000 1.0   0.01
Li     1 -0.0317120000000 -0.0971760000000  0.5026680000000 1.0   0.01
O      2 -0.0502270000000 -0.3572830000000  0.5828690000000 1.0  -0.15
O      2  0.0502270000000  0.1427170000000 -0.5828690000000 1.0  -0.15
O      2 -0.0404810000000  0.1840460000000  0.0401800000000 1.0  -0.25
O      2  0.0404810000000 -0.3159540000000 -0.0401800000000 1.0  -0.25
O      2  0.2303350000000  0.3278190000000  0.1874910000000 1.0  -0.23
O      2 -0.2303350000000 -0.1721810000000 -0.1874910000000 1.0  -0.23
S      3 -0.3439220000000  0.2787240000000  0.3204080000000 1.0  -0.21
S      3  0.3439220000000 -0.2212760000000 -0.3204080000000 1.0  -0.21
S      3 -0.5793120000000 -0.2113660000000  0.1546550000000 1.0  -0.21
S      3  0.5793120000000  0.2886340000000 -0.1546550000000 1.0  -0.21
Fe     4  0.5475860000000 -0.0244800000000 -0.2072100000000 1.0  -3.35
Fe     4 -0.5475860000000  0.4755200000000  0.2072100000000 1.0  -3.35
Fe     4 -0.3085510000000  0.2611780000000  0.0682910000000 1.0  -3.19
Fe     4  0.3085510000000 -0.2388220000000 -0.0682910000000 1.0  -3.19
Fe     4  0.0236000000000 -0.2815290000000 -0.2427690000000 1.0  -2.55
Fe     4 -0.0236000000000  0.2184710000000  0.2427690000000 1.0  -2.55
END
