TITL LFSO-Li3Fe3S2O4-200929-143740-bcc929 0.0960 435.914267 -1.10971277E+004 20.0225 20.6836 24 (P3) n - 1
REM
REM Run started: Wed, 30 Sep 2020 08:36:27 +0100 in /lustre/scratch/uccabz1/launch_tmp/launcher_2020-09-30-07-15-24-996331
REM CASTEP 20.1 from code version af48c487+ pr-geom-scf-spinfix Tue Jun 2 15:39:59 2020 +0100
REM Functional Perdew Burke Ernzerhof Relativity Koelling-Harmon Dispersion off
REM Cut-off 340.0000 eV Grid scale 1.7500 Gmax 16.5316 1/A FBSC none
REM MP grid 3 3 2 Offset 0.000 0.000 0.000 No. kpts 5 Spacing 0.07
REM Total runtime: 47463.6 s
REM Overall efficiency: 72.5 %
REM
REM
REM
REM compiler GCC version 4.9.2
REM options -cpp -iprefix /scratch/UCL/applications/gcc/4.9.2/bin/../lib/gcc/x86_64-unknown-linux-gnu/4.9.2/ -mtune=corei7 -march=x86-64 -g -O2
REM COMMAND_LINE
REM seed 287700502 1262377111 1974729747 69095774 1423623164 -1550426904 984824516 -1311251925 -716028341 649232149 194124134 1161698502
REM
REM S 3|1.8|5|6|7|30:31:32(qc=5)
REM O 2|1.5|12|13|15|20:21(qc=5)
REM Li 1|1.3|8|9|10|10U:20(qc=5)
REM Fe 3|2.2|2.0|1.0|8|9|10|40:41:32(qc=5)
REM 
CELL 1.54180    8.16583    8.16583    7.54866   90.00000   90.00000  120.00000
LATT -1
SFAC Li O  S  Fe 
Li     1  0.2896090000000  0.1332150000000 -0.3256130000000 1.0  -0.02
Li     1 -0.1332150000000  0.1563950000000 -0.3256130000000 1.0  -0.02
Li     1 -0.1563950000000 -0.2896090000000 -0.3256130000000 1.0  -0.02
Li     1  0.4686470000000 -0.4574540000000  0.4014350000000 1.0  -0.00
Li     1  0.4574540000000 -0.0738980000000  0.4014350000000 1.0  -0.00
Li     1  0.0738980000000 -0.4686470000000  0.4014350000000 1.0  -0.00
O      2  0.4978050000000  0.1534350000000 -0.1746900000000 1.0   0.05
O      2 -0.1534350000000  0.3443710000000 -0.1746900000000 1.0   0.05
O      2 -0.3443710000000 -0.4978050000000 -0.1746900000000 1.0   0.05
O      2 -0.3933140000000 -0.3516170000000  0.1984260000000 1.0   0.29
O      2  0.3516170000000 -0.0416960000000  0.1984260000000 1.0   0.29
O      2  0.0416960000000  0.3933140000000  0.1984260000000 1.0   0.29
O      2 -0.0000000000000  0.0000000000000  0.1334400000000 1.0   0.18
O      2  0.3333330000000 -0.3333330000000 -0.1089610000000 1.0   0.36
S      3  0.1799180000000  0.3303780000000 -0.4413700000000 1.0   0.09
S      3 -0.3303780000000 -0.1504590000000 -0.4413700000000 1.0   0.09
S      3  0.1504590000000 -0.1799180000000 -0.4413700000000 1.0   0.09
S      3 -0.3333340000000  0.3333340000000 -0.0841450000000 1.0   0.01
Fe     4  0.0575670000000  0.1918380000000  0.2999340000000 1.0   2.56
Fe     4 -0.1918380000000 -0.1342690000000  0.2999340000000 1.0   2.56
Fe     4  0.1342690000000 -0.0575670000000  0.2999340000000 1.0   2.56
Fe     4  0.3767200000000 -0.0958920000000 -0.0312190000000 1.0   3.52
Fe     4  0.0958920000000  0.4726130000000 -0.0312190000000 1.0   3.52
Fe     4 -0.4726130000000 -0.3767200000000 -0.0312190000000 1.0   3.52
END
