TITL LFSO-Li6FeS3O-200910-023121-bd16ac -0.0081 186.745354 -3.41214307E+003 4.00000 4.12446 11 (Fmm2) n - 1
REM
REM Run started: Thu, 10 Sep 2020 03:48:52 +0100 in /lustre/scratch/uccabz1/launch_tmp/launcher_2020-09-10-01-31-19-109167
REM CASTEP 20.1 from code version af48c487+ pr-geom-scf-spinfix Tue Jun 2 15:39:59 2020 +0100
REM Functional Perdew Burke Ernzerhof Relativity Koelling-Harmon Dispersion off
REM Cut-off 340.0000 eV Grid scale 1.7500 Gmax 16.5316 1/A FBSC none
REM MP grid 3 3 5 Offset 0.000 0.000 0.000 No. kpts 16 Spacing 0.07
REM Total runtime: 6733.14 s
REM Overall efficiency: 97 %
REM
REM
REM
REM compiler GCC version 4.9.2
REM options -cpp -iprefix /lustre/shared/ucl/apps/gcc/4.9.2/bin/../lib/gcc/x86_64-unknown-linux-gnu/4.9.2/ -mtune=corei7 -march=x86-64 -g -Og
REM COMMAND_LINE
REM seed 725558237 442804040 22420730 -669654163 1992274992 1172875876 -1759856177 36443984 110851877 -1231792656 -1151075078 -1212175479
REM
REM S 3|1.8|5|6|7|30:31:32(qc=5)
REM O 2|1.5|12|13|15|20:21(qc=5)
REM Li 1|1.3|8|9|10|10U:20(qc=5)
REM Fe 3|2.2|2.0|1.0|8|9|10|40:41:32(qc=5)
REM 
CELL 1.54180    7.53758    7.53758    6.89824  133.75664  133.75664   74.58130
LATT -1
SFAC Li O  S  Fe 
Li     1 -0.0553120000000 -0.3768360000000  0.3579910000000 1.0  -0.01
Li     1  0.3768360000000  0.0553120000000 -0.3579910000000 1.0  -0.01
Li     1 -0.4133030000000  0.2651730000000 -0.3579910000000 1.0  -0.01
Li     1 -0.2651730000000  0.4133030000000  0.3579910000000 1.0  -0.01
Li     1  0.1237230000000  0.2472960000000  0.0000000000000 1.0  -0.01
Li     1 -0.2472960000000 -0.1237230000000  0.0000000000000 1.0  -0.01
O      2 -0.4539890000000  0.4539890000000  0.0000000000000 1.0   0.25
S      3  0.0351430000000 -0.3947230000000  0.0000000000000 1.0   0.06
S      3  0.3947230000000 -0.0351430000000  0.0000000000000 1.0   0.06
S      3 -0.1374190000000  0.1374190000000  0.0000000000000 1.0   0.09
Fe     4  0.3467440000000 -0.3467440000000  0.0000000000000 1.0   3.61
END
