TITL LFSO-Li6FeS2O2-200920-201219-86c67d 0.0181 278.074372 -3.54647716E+003 3.99785 4.07175 11 (C2) n - 1
REM
REM Run started: Mon, 21 Sep 2020 00:21:51 +0100 in /lustre/scratch/uccabz1/launch_tmp/launcher_2020-09-20-19-12-17-789261
REM CASTEP 20.1 from code version af48c487+ pr-geom-scf-spinfix Tue Jun 2 15:39:59 2020 +0100
REM Functional Perdew Burke Ernzerhof Relativity Koelling-Harmon Dispersion off
REM Cut-off 340.0000 eV Grid scale 1.7500 Gmax 16.5316 1/A FBSC none
REM MP grid 4 2 2 Offset 0.000 0.000 0.000 No. kpts 6 Spacing 0.07
REM Total runtime: 17182.8 s
REM Overall efficiency: 96.8333 %
REM
REM
REM
REM compiler GCC version 4.9.2
REM options -cpp -iprefix /lustre/shared/ucl/apps/gcc/4.9.2/bin/../lib/gcc/x86_64-unknown-linux-gnu/4.9.2/ -mtune=corei7 -march=x86-64 -g -Og
REM COMMAND_LINE
REM seed 1767231668 797611652 2072241803 128454397 -818646564 365901908 537598407 -801790726 -283038590 -1494449551 1003124755 -1817179545
REM
REM S 3|1.8|5|6|7|30:31:32(qc=5)
REM O 2|1.5|12|13|15|20:21(qc=5)
REM Li 1|1.3|8|9|10|10U:20(qc=5)
REM Fe 3|2.2|2.0|1.0|8|9|10|40:41:32(qc=5)
REM 
CELL 1.54180    4.12068    8.78972    8.78972   61.30350   94.53795   94.53795
LATT -1
SFAC Li O  S  Fe 
Li     1 -0.0390980000000  0.2582900000000  0.1374360000000 1.0   0.01
Li     1  0.0390980000000 -0.1374360000000 -0.2582900000000 1.0   0.01
Li     1  0.4774090000000  0.0450380000000  0.3069510000000 1.0  -0.02
Li     1 -0.4774090000000 -0.3069510000000 -0.0450380000000 1.0  -0.02
Li     1  0.4745300000000  0.4136010000000 -0.0890710000000 1.0  -0.03
Li     1 -0.4745300000000  0.0890710000000 -0.4136010000000 1.0  -0.03
O      2  0.5164500000000 -0.0629460000000 -0.1716130000000 1.0   0.19
O      2 -0.5164500000000  0.1716130000000  0.0629460000000 1.0   0.19
S      3 -0.0048890000000 -0.4425250000000 -0.0756740000000 1.0   0.02
S      3  0.0048890000000  0.0756740000000  0.4425250000000 1.0   0.02
Fe     4  0.5000000000000  0.0511820000000 -0.0511820000000 1.0   3.65
END
