TITL LFSO-Li4Fe2SO3-200910-215935-fc9a18 0.0387 180.019819 -4.14217481E+003 -0.443863E-03 6.62218 10 (R3) n - 1
REM
REM Run started: Fri, 11 Sep 2020 00:38:45 +0100 in /lustre/scratch/uccabz1/launch_tmp/launcher_2020-09-10-20-59-33-435838
REM CASTEP 20.1 from code version af48c487+ pr-geom-scf-spinfix Tue Jun 2 15:39:59 2020 +0100
REM Functional Perdew Burke Ernzerhof Relativity Koelling-Harmon Dispersion off
REM Cut-off 340.0000 eV Grid scale 1.7500 Gmax 16.5316 1/A FBSC none
REM MP grid 3 3 3 Offset 0.000 0.000 0.000 No. kpts 6 Spacing 0.07
REM Total runtime: 9765.49 s
REM Overall efficiency: 95.1429 %
REM
REM
REM
REM compiler GCC version 4.9.2
REM options -cpp -iprefix /lustre/shared/ucl/apps/gcc/4.9.2/bin/../lib/gcc/x86_64-unknown-linux-gnu/4.9.2/ -mtune=corei7 -march=x86-64 -g -Og
REM COMMAND_LINE
REM seed -99515996 -1165162878 2016451803 1419088194 -1241020412 417994587 1717930751 1486881948 135480381 -1485895585 1997457663 -296542372
REM
REM S 3|1.8|5|6|7|30:31:32(qc=5)
REM O 2|1.5|12|13|15|20:21(qc=5)
REM Li 1|1.3|8|9|10|10U:20(qc=5)
REM Fe 3|2.2|2.0|1.0|8|9|10|40:41:32(qc=5)
REM 
CELL 1.54180    5.65621    5.65621    5.65621   93.30155   93.30155   93.30155
LATT -1
SFAC Li O  S  Fe 
Li     1  0.3854410000000 -0.3482780000000  0.0509080000000 1.0   0.09
Li     1 -0.3482780000000  0.0509080000000  0.3854410000000 1.0   0.09
Li     1  0.0509080000000  0.3854410000000 -0.3482780000000 1.0   0.09
Li     1  0.1150530000000  0.1150530000000  0.1150530000000 1.0  -0.06
O      2 -0.3240900000000 -0.1328400000000  0.0965330000000 1.0   0.21
O      2 -0.1328400000000  0.0965330000000 -0.3240900000000 1.0   0.21
O      2  0.0965330000000 -0.3240900000000 -0.1328400000000 1.0   0.21
S      3  0.3531040000000  0.3531040000000  0.3531040000000 1.0  -0.12
Fe     4 -0.1531170000000 -0.1531170000000 -0.1531170000000 1.0   2.59
Fe     4 -0.4156030000000 -0.4156030000000 -0.4156030000000 1.0  -3.29
END
