TITL LFSO-Li4Fe2S3O-200911-023349-938492 0.0563 164.256271 -3.87704757E+003 7.99149 8.11114 10 (C2) n - 1
REM
REM Run started: Fri, 11 Sep 2020 04:35:25 +0100 in /lustre/scratch/uccabz1/launch_tmp/launcher_2020-09-11-01-33-47-977748
REM CASTEP 20.1 from code version af48c487+ pr-geom-scf-spinfix Tue Jun 2 15:39:59 2020 +0100
REM Functional Perdew Burke Ernzerhof Relativity Koelling-Harmon Dispersion off
REM Cut-off 340.0000 eV Grid scale 1.7500 Gmax 16.5316 1/A FBSC none
REM MP grid 3 3 4 Offset 0.000 0.000 0.000 No. kpts 12 Spacing 0.07
REM Total runtime: 7976.99 s
REM Overall efficiency: 93.2222 %
REM
REM
REM
REM compiler GCC version 4.9.2
REM options -cpp -iprefix /lustre/shared/ucl/apps/gcc/4.9.2/bin/../lib/gcc/x86_64-unknown-linux-gnu/4.9.2/ -mtune=corei7 -march=x86-64 -g -Og
REM COMMAND_LINE
REM seed -1116518371 1882634909 584584663 1079773739 279125274 414258174 -979072001 86566332 -1353653008 -1045293103 -1886442778 -1190276050
REM
REM S 3|1.8|5|6|7|30:31:32(qc=5)
REM O 2|1.5|12|13|15|20:21(qc=5)
REM Li 1|1.3|8|9|10|10U:20(qc=5)
REM Fe 3|2.2|2.0|1.0|8|9|10|40:41:32(qc=5)
REM 
CELL 1.54180    5.74408    6.78320    4.92957   72.60310   90.00000  115.04977
LATT -1
SFAC Li O  S  Fe 
Li     1  0.1851790000000 -0.4206950000000  0.2591580000000 1.0   0.01
Li     1 -0.3941260000000  0.4206950000000 -0.2591580000000 1.0   0.01
Li     1  0.0929140000000 -0.1997190000000 -0.2251270000000 1.0  -0.00
Li     1  0.2926340000000  0.1997190000000  0.2251270000000 1.0  -0.00
O      2 -0.0157130000000  0.0000000000000 -0.5000000000000 1.0   0.29
S      3 -0.2640710000000 -0.4594640000000  0.2148260000000 1.0   0.23
S      3  0.1953930000000  0.4594640000000 -0.2148260000000 1.0   0.23
S      3  0.4813520000000  0.0000000000000  0.0000000000000 1.0   0.23
Fe     4 -0.2391500000000 -0.1292040000000  0.2496300000000 1.0   3.50
Fe     4 -0.1099460000000  0.1292040000000 -0.2496300000000 1.0   3.50
END
