TITL LFSO-Li3Fe3S4O2-200930-001453-eb547e 0.0071 396.333688 -1.05603531E+004 -2.38774 16.2513 24 (P222) n - 1
REM
REM Run started: Thu, 01 Oct 2020 02:25:03 +0100 in /lustre/scratch/uccabz1/launch_tmp/launcher_2020-09-30-05-01-51-225441
REM CASTEP 20.1 from code version af48c487+ pr-geom-scf-spinfix Tue Jun 2 15:39:59 2020 +0100
REM Functional Perdew Burke Ernzerhof Relativity Koelling-Harmon Dispersion off
REM Cut-off 340.0000 eV Grid scale 1.7500 Gmax 16.5316 1/A FBSC none
REM MP grid 3 3 2 Offset 0.000 0.000 0.000 No. kpts 4 Spacing 0.07
REM Total runtime: 53861.6 s
REM Overall efficiency: 90.2222 %
REM
REM
REM
REM compiler GCC version 4.9.2
REM options -cpp -iprefix /scratch/UCL/applications/gcc/4.9.2/bin/../lib/gcc/x86_64-unknown-linux-gnu/4.9.2/ -mtune=corei7 -march=x86-64 -g -O2
REM COMMAND_LINE
REM seed -830146300 1380699684 814850116 1917885289 -160736436 123130268 872079269 -1989911164 -82132542 560774935 -542348659 -2144102776
REM
REM S 3|1.8|5|6|7|30:31:32(qc=5)
REM O 2|1.5|12|13|15|20:21(qc=5)
REM Li 1|1.3|8|9|10|10U:20(qc=5)
REM Fe 3|2.2|2.0|1.0|8|9|10|40:41:32(qc=5)
REM 
CELL 1.54180    5.04117    5.96807   13.17334   90.00000   90.00000   90.00000
LATT -1
SFAC Li O  S  Fe 
Li     1  0.2421340000000 -0.3551320000000 -0.1025900000000 1.0   0.04
Li     1 -0.2421340000000 -0.3551320000000  0.1025900000000 1.0   0.04
Li     1  0.2421340000000  0.3551320000000  0.1025900000000 1.0   0.04
Li     1 -0.2421340000000  0.3551320000000 -0.1025900000000 1.0   0.04
Li     1  0.5000000000000  0.0000000000000  0.3954540000000 1.0  -0.01
Li     1 -0.5000000000000  0.0000000000000 -0.3954540000000 1.0  -0.01
O      2 -0.3163460000000 -0.2981300000000 -0.4352140000000 1.0  -0.10
O      2  0.3163460000000 -0.2981300000000  0.4352140000000 1.0  -0.10
O      2 -0.3163460000000  0.2981300000000  0.4352140000000 1.0  -0.10
O      2  0.3163460000000  0.2981300000000 -0.4352140000000 1.0  -0.10
S      3 -0.2203400000000 -0.2011510000000  0.2865900000000 1.0   0.04
S      3  0.2203400000000 -0.2011510000000 -0.2865900000000 1.0   0.04
S      3 -0.2203400000000  0.2011510000000 -0.2865900000000 1.0   0.04
S      3  0.2203400000000  0.2011510000000  0.2865900000000 1.0   0.04
S      3  0.2740670000000 -0.2383620000000  0.1019090000000 1.0   0.20
S      3 -0.2740670000000 -0.2383620000000 -0.1019090000000 1.0   0.20
S      3  0.2740670000000  0.2383620000000 -0.1019090000000 1.0   0.20
S      3 -0.2740670000000  0.2383620000000  0.1019090000000 1.0   0.20
Fe     4 -0.3041350000000  0.3854870000000 -0.4221140000000 1.0  -2.15
Fe     4  0.3041350000000  0.3854870000000  0.4221140000000 1.0  -2.15
Fe     4 -0.3041350000000 -0.3854870000000  0.4221140000000 1.0  -2.15
Fe     4  0.3041350000000 -0.3854870000000 -0.4221140000000 1.0  -2.15
Fe     4 -0.5000000000000  0.0000000000000  0.1927710000000 1.0   2.78
Fe     4  0.5000000000000  0.0000000000000 -0.1927710000000 1.0   2.78
END
