TITL LFSO-Li6FeSO3-200909-204056-ad0bdf 0.0565 177.148696 -3.67900909E+003 1.60003 2.95057 11 (P2) n - 1
REM
REM Run started: Wed, 09 Sep 2020 23:12:10 +0100 in /lustre/scratch/uccabz1/launch_tmp/launcher_2020-09-09-19-40-54-610083
REM CASTEP 20.1 from code version af48c487+ pr-geom-scf-spinfix Tue Jun 2 15:39:59 2020 +0100
REM Functional Perdew Burke Ernzerhof Relativity Koelling-Harmon Dispersion off
REM Cut-off 340.0000 eV Grid scale 1.7500 Gmax 16.5316 1/A FBSC none
REM MP grid 5 2 2 Offset 0.000 0.000 0.000 No. kpts 5 Spacing 0.07
REM Total runtime: 10235.3 s
REM Overall efficiency: 86.4167 %
REM
REM
REM
REM compiler GCC version 4.9.2
REM options -cpp -iprefix /lustre/shared/ucl/apps/gcc/4.9.2/bin/../lib/gcc/x86_64-unknown-linux-gnu/4.9.2/ -mtune=corei7 -march=x86-64 -g -Og
REM COMMAND_LINE
REM seed -1804654184 2043521017 1282677938 1051477434 1381002948 -1351610053 -334379675 1270539818 1994671747 -692326338 1474425256 2022846157
REM
REM S 3|1.8|5|6|7|30:31:32(qc=5)
REM O 2|1.5|12|13|15|20:21(qc=5)
REM Li 1|1.3|8|9|10|10U:20(qc=5)
REM Fe 3|2.2|2.0|1.0|8|9|10|40:41:32(qc=5)
REM 
CELL 1.54180    2.92951    9.37520    6.45266   90.00000   91.63347   90.00000
LATT -1
SFAC Li O  S  Fe 
Li     1 -0.0365770000000  0.1318850000000  0.3197780000000 1.0  -0.29
Li     1  0.0365770000000  0.1318850000000 -0.3197780000000 1.0  -0.29
Li     1 -0.4075150000000 -0.2671010000000 -0.2864340000000 1.0  -0.02
Li     1  0.4075150000000 -0.2671010000000  0.2864340000000 1.0  -0.02
Li     1 -0.4719390000000  0.3766090000000 -0.3386460000000 1.0   0.01
Li     1  0.4719390000000  0.3766090000000  0.3386460000000 1.0   0.01
O      2  0.5124480000000 -0.4516390000000  0.1902330000000 1.0   0.07
O      2 -0.5124480000000 -0.4516390000000 -0.1902330000000 1.0   0.07
O      2  0.0000000000000  0.2829000000000  0.5000000000000 1.0  -0.01
S      3  0.0000000000000 -0.1068720000000  0.5000000000000 1.0  -0.00
Fe     4  0.0000000000000 -0.4538690000000  0.0000000000000 1.0   2.08
END
