TITL LFSO-LiFe3SO4-200909-012204-0b0984 -0.0600 212.207319 -9.69350442E+003 13.9880 14.2650 18 (Fdd2) n - 1
REM
REM Run started: Wed, 09 Sep 2020 08:27:00 +0100 in /lustre/scratch/uccabz1/launch_tmp/launcher_2020-09-09-00-22-02-764035
REM CASTEP 20.1 from code version af48c487+ pr-geom-scf-spinfix Tue Jun 2 15:39:59 2020 +0100
REM Functional Perdew Burke Ernzerhof Relativity Koelling-Harmon Dispersion off
REM Cut-off 340.0000 eV Grid scale 1.7500 Gmax 16.5316 1/A FBSC none
REM MP grid 3 3 4 Offset 0.000 0.000 0.000 No. kpts 12 Spacing 0.07
REM Total runtime: 27945.7 s
REM Overall efficiency: 98.2222 %
REM
REM
REM
REM compiler GCC version 4.9.2
REM options -cpp -iprefix /lustre/shared/ucl/apps/gcc/4.9.2/bin/../lib/gcc/x86_64-unknown-linux-gnu/4.9.2/ -mtune=corei7 -march=x86-64 -g -Og
REM COMMAND_LINE
REM seed -35909624 1680985594 1858996561 1029822097 539513368 -65461787 965676940 1348754146 -1446531375 1404432817 1174661212 -196364882
REM
REM S 3|1.8|5|6|7|30:31:32(qc=5)
REM O 2|1.5|12|13|15|20:21(qc=5)
REM Li 1|1.3|8|9|10|10U:20(qc=5)
REM Fe 3|2.2|2.0|1.0|8|9|10|40:41:32(qc=5)
REM 
CELL 1.54180    8.40705    8.40705    8.37018  143.02076  143.02076   53.79324
LATT -1
SFAC Li O  S  Fe 
Li     1  0.0996870000000  0.0996870000000 -0.0000000000000 1.0  -0.04
Li     1 -0.1503130000000  0.3496870000000 -0.5000000000000 1.0  -0.04
O      2  0.4604340000000  0.1939770000000  0.2616590000000 1.0   0.19
O      2 -0.0676810000000  0.1987760000000 -0.2616590000000 1.0   0.19
O      2 -0.0560230000000 -0.2895660000000 -0.2383410000000 1.0   0.19
O      2 -0.0512240000000  0.1823190000000  0.2383410000000 1.0   0.19
O      2  0.3794880000000 -0.3912700000000 -0.2365510000000 1.0   0.26
O      2 -0.1547190000000  0.6160400000000  0.2365510000000 1.0   0.26
O      2  0.3587300000000 -0.3705120000000  0.2634490000000 1.0   0.26
O      2  0.3660400000000  0.0952810000000 -0.2634490000000 1.0   0.26
S      3 -0.2188060000000 -0.2188060000000 -0.0000000000000 1.0  -0.04
S      3 -0.4688060000000  0.0311940000000  0.5000000000000 1.0  -0.04
Fe     4 -0.3455040000000  0.4092500000000 -0.2434210000000 1.0   1.26
Fe     4 -0.3473290000000 -0.1020830000000  0.2434210000000 1.0   1.26
Fe     4  0.1592500000000 -0.0955040000000  0.2565790000000 1.0   1.26
Fe     4 -0.3520830000000 -0.0973290000000 -0.2565790000000 1.0   1.26
Fe     4  0.2813030000000  0.2813030000000 -0.0000000000000 1.0   3.68
Fe     4  0.0313030000000 -0.4686970000000 -0.5000000000000 1.0   3.68
END
