TITL LFSO-LiFe3S2O3-200909-182800-a7c0fb 0.0663 282.679122 -9.42281010E+003 -8.19778 8.69731 18 (P3) n - 1
REM
REM Run started: Thu, 10 Sep 2020 15:35:45 +0100 in /lustre/scratch/uccabz1/launch_tmp/launcher_2020-09-09-17-27-58-725522
REM CASTEP 20.1 from code version af48c487+ pr-geom-scf-spinfix Tue Jun 2 15:39:59 2020 +0100
REM Functional Perdew Burke Ernzerhof Relativity Koelling-Harmon Dispersion off
REM Cut-off 340.0000 eV Grid scale 1.7500 Gmax 16.5316 1/A FBSC none
REM MP grid 4 4 2 Offset 0.000 0.000 0.000 No. kpts 16 Spacing 0.07
REM Total runtime: 78751.1 s
REM Overall efficiency: 98.5 %
REM
REM
REM
REM compiler GCC version 4.9.2
REM options -cpp -iprefix /lustre/shared/ucl/apps/gcc/4.9.2/bin/../lib/gcc/x86_64-unknown-linux-gnu/4.9.2/ -mtune=corei7 -march=x86-64 -g -Og
REM COMMAND_LINE
REM seed -1749143813 1878802136 -1687325882 -115661019 -1263131856 -115741994 362733740 1214202712 -566596921 1978752082 1097724811 1289247589
REM
REM S 3|1.8|5|6|7|30:31:32(qc=5)
REM O 2|1.5|12|13|15|20:21(qc=5)
REM Li 1|1.3|8|9|10|10U:20(qc=5)
REM Fe 3|2.2|2.0|1.0|8|9|10|40:41:32(qc=5)
REM 
CELL 1.54180    5.25722    5.25722   11.81004   90.00000   90.00000  120.00000
LATT -1
SFAC Li O  S  Fe 
Li     1  0.0000000000000 -0.0000000000000  0.0684180000000 1.0   0.03
Li     1 -0.3333330000000  0.3333330000000 -0.3971760000000 1.0  -0.02
O      2 -0.2789200000000  0.0485190000000 -0.0687620000000 1.0  -0.01
O      2  0.3274390000000  0.2789200000000 -0.0687620000000 1.0  -0.01
O      2 -0.0485190000000 -0.3274390000000 -0.0687620000000 1.0  -0.01
O      2  0.0571800000000 -0.2688050000000  0.2050920000000 1.0  -0.08
O      2 -0.3259850000000 -0.0571800000000  0.2050920000000 1.0  -0.08
O      2  0.2688050000000  0.3259850000000  0.2050920000000 1.0  -0.08
S      3 -0.3063410000000 -0.2543230000000 -0.2831530000000 1.0   0.04
S      3  0.0520170000000  0.3063410000000 -0.2831530000000 1.0   0.04
S      3  0.2543230000000 -0.0520170000000 -0.2831530000000 1.0   0.04
S      3 -0.3333330000000  0.3333330000000  0.3997970000000 1.0  -0.34
Fe     4 -0.4060740000000 -0.3347490000000 -0.1141990000000 1.0  -0.32
Fe     4  0.0713250000000  0.4060740000000 -0.1141990000000 1.0  -0.32
Fe     4  0.3347490000000 -0.0713250000000 -0.1141990000000 1.0  -0.32
Fe     4 -0.3384820000000 -0.4077860000000  0.2447270000000 1.0  -2.25
Fe     4 -0.0693040000000  0.3384820000000  0.2447270000000 1.0  -2.25
Fe     4  0.4077860000000  0.0693040000000  0.2447270000000 1.0  -2.25
END
