TITL LFSO-Li2Fe3SO3-200912-142536-06fdac -0.0050 108.017137 -4.60844578E+003 6.02267 6.22776 9 (Cm) n - 1
REM
REM Run started: Sat, 12 Sep 2020 16:27:00 +0100 in /lustre/scratch/uccabz1/launch_tmp/launcher_2020-09-12-13-25-34-994158
REM CASTEP 20.1 from code version af48c487+ pr-geom-scf-spinfix Tue Jun 2 15:39:59 2020 +0100
REM Functional Perdew Burke Ernzerhof Relativity Koelling-Harmon Dispersion off
REM Cut-off 340.0000 eV Grid scale 1.7500 Gmax 16.5316 1/A FBSC none
REM MP grid 3 4 6 Offset 0.000 0.000 0.000 No. kpts 36 Spacing 0.07
REM Total runtime: 9225.4 s
REM Overall efficiency: 96.6667 %
REM
REM
REM
REM compiler GCC version 4.9.2
REM options -cpp -iprefix /lustre/shared/ucl/apps/gcc/4.9.2/bin/../lib/gcc/x86_64-unknown-linux-gnu/4.9.2/ -mtune=corei7 -march=x86-64 -g -Og
REM COMMAND_LINE
REM seed 1228564209 1246304342 686201195 2030725480 1923522497 2001320113 1927847581 -694405328 483672786 632126083 810714077 -2051748068
REM
REM S 3|1.8|5|6|7|30:31:32(qc=5)
REM O 2|1.5|12|13|15|20:21(qc=5)
REM Li 1|1.3|8|9|10|10U:20(qc=5)
REM Fe 3|2.2|2.0|1.0|8|9|10|40:41:32(qc=5)
REM 
CELL 1.54180    6.09434    6.73954    4.56507  137.57524  110.55163   90.00000
LATT -1
SFAC Li O  S  Fe 
Li     1  0.4881850000000 -0.1808950000000  0.2403560000000 1.0  -0.01
Li     1  0.4881850000000  0.4212510000000  0.2403560000000 1.0  -0.01
O      2  0.2904100000000 -0.5309450000000 -0.4831840000000 1.0   0.11
O      2  0.2904100000000  0.0477610000000 -0.4831840000000 1.0   0.11
O      2 -0.2354310000000 -0.2748140000000  0.4503720000000 1.0   0.04
S      3 -0.1579890000000 -0.7280440000000 -0.4560880000000 1.0   0.04
Fe     4 -0.0100090000000  0.5112390000000  0.3665910000000 1.0   2.30
Fe     4 -0.0100090000000 -0.1446480000000  0.3665910000000 1.0   2.30
Fe     4  0.0710240000000  0.0692690000000  0.1385380000000 1.0   1.15
END
