TITL LFSO-Li5FeS2O2-200921-002007-251886 -0.0397 148.501637 -3.34159074E+003 4.86516 4.90145 10 (R3) n - 1
REM
REM Run started: Mon, 21 Sep 2020 03:36:34 +0100 in /lustre/scratch/uccabz1/launch_tmp/launcher_2020-09-20-23-20-05-537207
REM CASTEP 20.1 from code version af48c487+ pr-geom-scf-spinfix Tue Jun 2 15:39:59 2020 +0100
REM Functional Perdew Burke Ernzerhof Relativity Koelling-Harmon Dispersion off
REM Cut-off 340.0000 eV Grid scale 1.7500 Gmax 16.5316 1/A FBSC none
REM MP grid 4 4 3 Offset 0.000 0.000 0.000 No. kpts 24 Spacing 0.07
REM Total runtime: 13038.9 s
REM Overall efficiency: 97 %
REM
REM
REM
REM compiler GCC version 4.9.2
REM options -cpp -iprefix /lustre/shared/ucl/apps/gcc/4.9.2/bin/../lib/gcc/x86_64-unknown-linux-gnu/4.9.2/ -mtune=corei7 -march=x86-64 -g -Og
REM COMMAND_LINE
REM seed 1886293302 -1534753260 1930008270 -1942493603 -670753680 -891328205 -517537597 1110041619 -1575662350 -786127423 -2113217212 -1128932356
REM
REM S 3|1.8|5|6|7|30:31:32(qc=5)
REM O 2|1.5|12|13|15|20:21(qc=5)
REM Li 1|1.3|8|9|10|10U:20(qc=5)
REM Fe 3|2.2|2.0|1.0|8|9|10|40:41:32(qc=5)
REM 
CELL 1.54180    5.06803    5.06803    7.28917   69.65690   69.65690   60.00000
LATT -1
SFAC Li O  S  Fe 
Li     1 -0.3883640000000 -0.0756980000000  0.3464890000000 1.0  -0.02
Li     1  0.1175730000000 -0.3883640000000  0.3464890000000 1.0  -0.02
Li     1 -0.0756980000000  0.1175730000000  0.3464890000000 1.0  -0.02
Li     1  0.4788470000000  0.4788470000000 -1.4365420000000 1.0  -0.00
Li     1  0.1170930000000  0.1170930000000 -0.3512790000000 1.0   0.01
O      2  0.2133670000000  0.2133670000000 -0.6401010000000 1.0   0.35
O      2 -0.1782460000000 -0.1782460000000  0.5347380000000 1.0   0.08
S      3 -0.0008440000000 -0.0008440000000  0.0025310000000 1.0   0.30
S      3 -0.3929980000000 -0.3929980000000  1.1789940000000 1.0   0.39
Fe     4  0.3056440000000  0.3056440000000 -0.9169320000000 1.0   3.78
END
