TITL LFSO-Li2Fe3SO3-200912-170520-55406d 0.0247 379.947942 -9.21449078E+003 -19.8340 20.3501 18 (P42) n - 1
REM
REM Run started: Sun, 13 Sep 2020 02:30:28 +0100 in /lustre/scratch/uccabz1/launch_tmp/launcher_2020-09-12-16-05-18-921292
REM CASTEP 20.1 from code version af48c487+ pr-geom-scf-spinfix Tue Jun 2 15:39:59 2020 +0100
REM Functional Perdew Burke Ernzerhof Relativity Koelling-Harmon Dispersion off
REM Cut-off 340.0000 eV Grid scale 1.7500 Gmax 16.5316 1/A FBSC none
REM MP grid 3 2 2 Offset 0.000 0.000 0.000 No. kpts 2 Spacing 0.07
REM Total runtime: 31766.7 s
REM Overall efficiency: 86.5385 %
REM
REM
REM
REM compiler GCC version 4.9.2
REM options -cpp -iprefix /lustre/shared/ucl/apps/gcc/4.9.2/bin/../lib/gcc/x86_64-unknown-linux-gnu/4.9.2/ -mtune=corei7 -march=x86-64 -g -Og
REM COMMAND_LINE
REM seed -947111094 555731183 -1238636086 -2100173236 1049626946 732634930 -1259793818 -1916157955 605517189 -430375177 -1583648272 -671694107
REM
REM S 3|1.8|5|6|7|30:31:32(qc=5)
REM O 2|1.5|12|13|15|20:21(qc=5)
REM Li 1|1.3|8|9|10|10U:20(qc=5)
REM Fe 3|2.2|2.0|1.0|8|9|10|40:41:32(qc=5)
REM 
CELL 1.54180    6.23622    7.80551    7.80551   90.00000   90.00000   90.00000
LATT -1
SFAC Li O  S  Fe 
Li     1 -0.2968450000000 -0.1098860000000  0.3556720000000 1.0   0.03
Li     1 -0.2968450000000  0.1098860000000 -0.3556720000000 1.0   0.03
Li     1  0.2031550000000  0.3556720000000  0.1098860000000 1.0   0.03
Li     1  0.2031550000000 -0.3556720000000 -0.1098860000000 1.0   0.03
O      2 -0.2937500000000  0.1223800000000 -0.1161190000000 1.0  -0.25
O      2 -0.2937500000000 -0.1223800000000  0.1161190000000 1.0  -0.25
O      2  0.2062500000000 -0.1161190000000 -0.1223800000000 1.0  -0.25
O      2  0.2062500000000  0.1161190000000  0.1223800000000 1.0  -0.25
O      2  0.0015650000000  0.5000000000000  0.0000000000000 1.0  -0.14
O      2 -0.4984350000000 -0.0000000000000  0.5000000000000 1.0  -0.14
S      3  0.0071540000000 -0.0000000000000 -0.5000000000000 1.0  -0.20
S      3 -0.4928460000000 -0.5000000000000  0.0000000000000 1.0  -0.20
Fe     4  0.2896580000000 -0.0470940000000  0.6612490000000 1.0  -2.78
Fe     4  0.2896580000000  0.0470940000000 -0.6612490000000 1.0  -2.78
Fe     4 -0.2103420000000  0.6612490000000  0.0470940000000 1.0  -2.78
Fe     4 -0.2103420000000 -0.6612490000000 -0.0470940000000 1.0  -2.78
Fe     4 -0.0405300000000 -0.0000000000000  0.0000000000000 1.0  -3.57
Fe     4  0.4594700000000 -0.0000000000000  0.0000000000000 1.0  -3.57
END
