TITL LFSO-Li2Fe2SO2-200913-003018-674c8a 0.0978 317.907388 -9.91933213E+003 18.0048 18.5234 21 (R3) n - 1
REM
REM Run started: Sun, 13 Sep 2020 05:51:05 +0100 in /lustre/scratch/uccabz1/launch_tmp/launcher_2020-09-12-23-30-16-830464
REM CASTEP 20.1 from code version af48c487+ pr-geom-scf-spinfix Tue Jun 2 15:39:59 2020 +0100
REM Functional Perdew Burke Ernzerhof Relativity Koelling-Harmon Dispersion off
REM Cut-off 340.0000 eV Grid scale 1.7500 Gmax 16.5316 1/A FBSC none
REM MP grid 3 3 3 Offset 0.000 0.000 0.000 No. kpts 6 Spacing 0.07
REM Total runtime: 19399.7 s
REM Overall efficiency: 97.2857 %
REM
REM
REM
REM compiler GCC version 4.9.2
REM options -cpp -iprefix /lustre/shared/ucl/apps/gcc/4.9.2/bin/../lib/gcc/x86_64-unknown-linux-gnu/4.9.2/ -mtune=corei7 -march=x86-64 -g -Og
REM COMMAND_LINE
REM seed 619581147 1396530102 -1700103595 2046510754 671442878 937025284 -1949381105 1258659028 -365246839 -1541729873 -497941812 1798610575
REM
REM S 3|1.8|5|6|7|30:31:32(qc=5)
REM O 2|1.5|12|13|15|20:21(qc=5)
REM Li 1|1.3|8|9|10|10U:20(qc=5)
REM Fe 3|2.2|2.0|1.0|8|9|10|40:41:32(qc=5)
REM 
CELL 1.54180    7.48471    7.48471    7.48471   63.26044   63.26044   63.26044
LATT -1
SFAC Li O  S  Fe 
Li     1 -0.5492510000000  0.4464380000000 -0.0700350000000 1.0   0.01
Li     1 -0.5535620000000 -0.0700350000000  0.4507490000000 1.0   0.01
Li     1 -1.0700350000000  0.4507490000000  0.4464380000000 1.0   0.01
Li     1  0.1726390000000 -0.3943640000000  0.3733780000000 1.0  -0.04
Li     1 -0.3943640000000  0.3733780000000  0.1726390000000 1.0  -0.04
Li     1  0.3733780000000  0.1726390000000 -0.3943640000000 1.0  -0.04
O      2 -0.2705920000000  0.4053410000000 -0.1116650000000 1.0   0.21
O      2  0.4053410000000 -0.1116650000000 -0.2705920000000 1.0   0.21
O      2 -0.1116650000000 -0.2705920000000  0.4053410000000 1.0   0.21
O      2 -0.3686580000000  0.1032320000000  0.3521460000000 1.0   0.11
O      2  0.1032320000000  0.3521460000000 -0.3686580000000 1.0   0.11
O      2  0.3521460000000 -0.3686580000000  0.1032320000000 1.0   0.11
S      3  0.0702330000000 -0.0466080000000 -0.3987520000000 1.0   0.11
S      3 -0.0466080000000 -0.3987520000000  0.0702330000000 1.0   0.11
S      3 -0.3987520000000  0.0702330000000 -0.0466080000000 1.0   0.11
Fe     4  0.5557710000000 -0.1966310000000 -0.0785140000000 1.0   3.38
Fe     4  0.8033690000000 -0.0785140000000 -0.4442290000000 1.0   3.38
Fe     4  0.9214860000000 -0.4442290000000 -0.1966310000000 1.0   3.38
Fe     4 -0.0868130000000  0.1704660000000 -0.1920870000000 1.0   2.23
Fe     4  0.1704660000000 -0.1920870000000 -0.0868130000000 1.0   2.23
Fe     4 -0.1920870000000 -0.0868130000000  0.1704660000000 1.0   2.23
END
