TITL LFSO-Li4FeS2O-200910-112845-c15fbc -0.1564 389.445398 -8.12667040E+003 9.85119 10.0725 24 (P-1) n - 1
REM
REM Run started: Fri, 11 Sep 2020 11:50:07 +0100 in /lustre/scratch/uccabz1/launch_tmp/launcher_2020-09-10-10-28-44-221841
REM CASTEP 20.1 from code version af48c487+ pr-geom-scf-spinfix Tue Jun 2 15:39:59 2020 +0100
REM Functional Perdew Burke Ernzerhof Relativity Koelling-Harmon Dispersion off
REM Cut-off 340.0000 eV Grid scale 1.7500 Gmax 16.5316 1/A FBSC none
REM MP grid 5 3 1 Offset 0.000 0.000 0.000 No. kpts 8 Spacing 0.07
REM Total runtime: 103860 s
REM Overall efficiency: 98.75 %
REM
REM
REM
REM compiler GCC version 4.9.2
REM options -cpp -iprefix /lustre/shared/ucl/apps/gcc/4.9.2/bin/../lib/gcc/x86_64-unknown-linux-gnu/4.9.2/ -mtune=corei7 -march=x86-64 -g -Og
REM COMMAND_LINE
REM seed 689014600 1743099957 1910718790 -1301246678 1771114227 -1472373203 -1409346555 -793177210 667924605 -1344804200 1049849703 727914683
REM
REM S 3|1.8|5|6|7|30:31:32(qc=5)
REM O 2|1.5|12|13|15|20:21(qc=5)
REM Li 1|1.3|8|9|10|10U:20(qc=5)
REM Fe 3|2.2|2.0|1.0|8|9|10|40:41:32(qc=5)
REM 
CELL 1.54180    3.72939    7.57176   17.80556   93.87643   64.55378  119.28620
LATT -1
SFAC Li O  S  Fe 
Li     1  0.6733660000000  0.2754590000000  0.2738210000000 1.0   0.01
Li     1 -0.6733660000000 -0.2754590000000 -0.2738210000000 1.0   0.01
Li     1 -0.2621630000000  0.0458250000000 -0.0792570000000 1.0  -0.03
Li     1  0.2621630000000 -0.0458250000000  0.0792570000000 1.0  -0.03
Li     1  0.4344690000000 -0.0210220000000 -0.4293220000000 1.0   0.00
Li     1 -0.4344690000000  0.0210220000000  0.4293220000000 1.0   0.00
Li     1 -0.3285150000000 -0.2715240000000  0.5550620000000 1.0   0.00
Li     1  0.3285150000000  0.2715240000000 -0.5550620000000 1.0   0.00
Li     1  0.0528030000000  0.2272960000000  0.0861580000000 1.0   0.00
Li     1 -0.0528030000000 -0.2272960000000 -0.0861580000000 1.0   0.00
Li     1  0.6191890000000 -0.3260370000000  0.2483500000000 1.0  -0.02
Li     1 -0.6191890000000  0.3260370000000 -0.2483500000000 1.0  -0.02
O      2 -0.4097720000000  0.2191510000000 -0.0005590000000 1.0   0.18
O      2  0.4097720000000 -0.2191510000000  0.0005590000000 1.0   0.18
O      2  0.0000000000000  0.0000000000000  0.5000000000000 1.0   0.00
S      3 -0.4943320000000  0.1026520000000 -0.1798790000000 1.0   0.18
S      3  0.4943320000000 -0.1026520000000  0.1798790000000 1.0   0.18
S      3  0.0964850000000  0.3612140000000 -0.6450740000000 1.0   0.00
S      3 -0.0964850000000 -0.3612140000000  0.6450740000000 1.0   0.00
S      3  0.4169660000000 -0.4291070000000 -0.1453090000000 1.0   0.18
S      3 -0.4169660000000  0.4291070000000  0.1453090000000 1.0   0.18
Fe     4  0.3862010000000 -0.3596180000000  0.0965560000000 1.0   3.40
Fe     4 -0.3862010000000  0.3596180000000 -0.0965560000000 1.0   3.40
Fe     4  0.0000000000000  0.5000000000000  0.0000000000000 1.0   2.01
END
