TITL LFSO-LiFe3S3O2-200909-142338-c2d25d 0.0006 143.605068 -4.57644589E+003 7.70194 7.95653 9 (R3) n - 1
REM
REM Run started: Wed, 09 Sep 2020 17:23:28 +0100 in /lustre/scratch/uccabz1/launch_tmp/launcher_2020-09-09-13-23-36-510681
REM CASTEP 20.1 from code version af48c487+ pr-geom-scf-spinfix Tue Jun 2 15:39:59 2020 +0100
REM Functional Perdew Burke Ernzerhof Relativity Koelling-Harmon Dispersion off
REM Cut-off 340.0000 eV Grid scale 1.7500 Gmax 16.5316 1/A FBSC none
REM MP grid 3 3 4 Offset 0.000 0.000 0.000 No. kpts 14 Spacing 0.07
REM Total runtime: 11381.1 s
REM Overall efficiency: 97.1429 %
REM
REM
REM
REM compiler GCC version 4.9.2
REM options -cpp -iprefix /lustre/shared/ucl/apps/gcc/4.9.2/bin/../lib/gcc/x86_64-unknown-linux-gnu/4.9.2/ -mtune=corei7 -march=x86-64 -g -Og
REM COMMAND_LINE
REM seed 1424128350 -1500568797 1631855062 -740746855 -1088260699 -2125374038 93144457 1665137699 -113336009 1744999706 -1235590411 1168791079
REM
REM S 3|1.8|5|6|7|30:31:32(qc=5)
REM O 2|1.5|12|13|15|20:21(qc=5)
REM Li 1|1.3|8|9|10|10U:20(qc=5)
REM Fe 3|2.2|2.0|1.0|8|9|10|40:41:32(qc=5)
REM 
CELL 1.54180    6.51819    6.51819    5.42169   53.04976   53.04976   60.00000
LATT -1
SFAC Li O  S  Fe 
Li     1 -0.5255710000000 -0.5255710000000  0.5767140000000 1.0   0.00
O      2 -0.3459710000000 -0.3459710000000  0.0379120000000 1.0   0.13
O      2 -0.0219760000000 -0.0219760000000  0.0659290000000 1.0   0.16
S      3  0.1694760000000 -0.1235650000000 -0.4913800000000 1.0   0.16
S      3 -0.1235650000000  0.4454700000000 -0.4913800000000 1.0   0.16
S      3  0.4454700000000  0.1694760000000 -0.4913800000000 1.0   0.16
Fe     4 -0.1328970000000 -0.2187530000000  0.0332900000000 1.0   2.31
Fe     4 -0.2187530000000  0.3183600000000  0.0332900000000 1.0   2.31
Fe     4  0.3183600000000 -0.1328970000000  0.0332900000000 1.0   2.31
END
