TITL LFSO-Li3Fe3S4O2-200929-195614-1bc27c 0.0354 204.955012 -5.28062851E+003 -13.0850 13.1476 12 (R3) n - 1
REM
REM Run started: Tue, 29 Sep 2020 22:37:48 +0100 in /scratch/scratch/uccabz1/launch_tmp/launcher_2020-09-29-18-56-13-279512
REM CASTEP 19.11| from code version Version unavailable
REM Functional Perdew Burke Ernzerhof Relativity Koelling-Harmon Dispersion off
REM Cut-off 340.0000 eV Grid scale 1.7500 Gmax 16.5316 1/A FBSC none
REM MP grid 3 3 3 Offset 0.000 0.000 0.000 No. kpts 6 Spacing 0.07
REM Total runtime: 9781.15 s
REM Overall efficiency: 96.25 %
REM
REM
REM
REM compiler GCC version 4.9.2
REM options -cpp -iprefix /scratch/UCL/applications/gcc/4.9.2/bin/../lib/gcc/x86_64-unknown-linux-gnu/4.9.2/ -mtune=corei7 -march=x86-64 -g -O2
REM COMMAND_LINE
REM seed 362435862 1902015177 349379145 -1606153079 -299607486 2103503206 -726258971 -2028200700 713118410 956170740 342215609 -1595524506
REM
REM S 3|1.8|5|6|7|30:31:32(qc=5)
REM O 2|1.5|12|13|15|20:21(qc=5)
REM Li 1|1.3|8|9|10|10U:20(qc=5)
REM Fe 3|2.2|2.0|1.0|8|9|10|40:41:32(qc=5)
REM 
CELL 1.54180    7.51864    7.51864    7.51864   46.60407   46.60407   46.60407
LATT -1
SFAC Li O  S  Fe 
Li     1  0.0532680000000  0.6284390000000  0.3505650000000 1.0  -0.07
Li     1  0.3505650000000  0.0532680000000  0.6284390000000 1.0  -0.07
Li     1  0.6284390000000  0.3505650000000  0.0532680000000 1.0  -0.07
O      2 -0.1216250000000 -0.1216250000000 -0.1216250000000 1.0  -0.43
O      2 -0.4601040000000 -0.4601040000000 -0.4601040000000 1.0  -0.42
S      3  0.3997210000000 -0.2145200000000  0.0403480000000 1.0  -0.22
S      3  0.0403480000000  0.3997210000000 -0.2145200000000 1.0  -0.22
S      3 -0.2145200000000  0.0403480000000  0.3997210000000 1.0  -0.22
S      3  0.2410560000000  0.2410560000000  0.2410560000000 1.0  -0.27
Fe     4  0.1805780000000 -0.4514450000000 -0.1789290000000 1.0  -3.70
Fe     4 -0.1789290000000  0.1805780000000 -0.4514450000000 1.0  -3.70
Fe     4 -0.4514450000000 -0.1789290000000  0.1805780000000 1.0  -3.70
END
