TITL LFSO-Li4Fe3S2O3-201001-085401-975c6b 0.0143 168.954270 -5.30937858E+003 9.13933 9.37323 12 (Immm) n - 1
REM
REM Run started: Thu, 01 Oct 2020 10:44:24 +0100 in /lustre/scratch/uccabz1/launch_tmp/launcher_2020-10-01-07-53-59-928193
REM CASTEP 20.1 from code version af48c487+ pr-geom-scf-spinfix Tue Jun 2 15:39:59 2020 +0100
REM Functional Perdew Burke Ernzerhof Relativity Koelling-Harmon Dispersion off
REM Cut-off 340.0000 eV Grid scale 1.7500 Gmax 16.5316 1/A FBSC none
REM MP grid 4 3 3 Offset 0.000 0.000 0.000 No. kpts 12 Spacing 0.07
REM Total runtime: 7430.66 s
REM Overall efficiency: 95.625 %
REM
REM
REM
REM compiler GCC version 4.9.2
REM options -cpp -iprefix /lustre/shared/ucl/apps/gcc/4.9.2/bin/../lib/gcc/x86_64-unknown-linux-gnu/4.9.2/ -mtune=corei7 -march=x86-64 -g -Og
REM COMMAND_LINE
REM seed 110949093 -1385738843 477345821 1538477648 1141292984 1808828805 -590887075 1181893108 2037171526 -1672845371 -322904049 261787284
REM
REM S 3|1.8|5|6|7|30:31:32(qc=5)
REM O 2|1.5|12|13|15|20:21(qc=5)
REM Li 1|1.3|8|9|10|10U:20(qc=5)
REM Fe 3|2.2|2.0|1.0|8|9|10|40:41:32(qc=5)
REM 
CELL 1.54180    4.90891    6.48304    6.48304   66.73950   67.75328   67.75328
LATT -1
SFAC Li O  S  Fe 
Li     1  0.6354010000000  0.0619060000000 -0.3327080000000 1.0  -0.08
Li     1 -0.6354010000000 -0.0619060000000  0.3327080000000 1.0  -0.08
Li     1 -0.3645990000000 -0.3327080000000  0.0619060000000 1.0  -0.08
Li     1  0.3645990000000  0.3327080000000 -0.0619060000000 1.0  -0.08
O      2 -0.3105750000000  0.3105750000000  0.3105750000000 1.0   0.25
O      2  0.3105750000000 -0.3105750000000 -0.3105750000000 1.0   0.25
O      2  0.5000000000000  0.0000000000000  0.0000000000000 1.0   0.28
S      3  0.0000000000000  0.2685710000000 -0.2685710000000 1.0   0.10
S      3  0.0000000000000 -0.2685710000000  0.2685710000000 1.0   0.10
Fe     4  0.1211130000000 -0.1211130000000 -0.1211130000000 1.0   2.59
Fe     4 -0.1211130000000  0.1211130000000  0.1211130000000 1.0   2.59
Fe     4 -0.5000000000000 -0.5000000000000  0.5000000000000 1.0   3.32
END
