TITL LFSO-Li4Fe3S2O3-200927-161735-0cb991 -0.0130 179.353694 -5.31165684E+003 -7.27098 7.94466 12 (C2) n - 1
REM
REM Run started: Mon, 28 Sep 2020 14:16:25 +0100 in /lustre/scratch/uccabz1/launch_tmp/launcher_2020-09-28-12-56-29-728420
REM CASTEP 20.1 from code version af48c487+ pr-geom-scf-spinfix Tue Jun 2 15:39:59 2020 +0100
REM Functional Perdew Burke Ernzerhof Relativity Koelling-Harmon Dispersion off
REM Cut-off 340.0000 eV Grid scale 1.7500 Gmax 16.5316 1/A FBSC none
REM MP grid 6 2 3 Offset 0.000 0.000 0.000 No. kpts 18 Spacing 0.07
REM Total runtime: 27577.9 s
REM Overall efficiency: 97.3846 %
REM
REM
REM
REM compiler GCC version 4.9.2
REM options -cpp -iprefix /lustre/shared/ucl/apps/gcc/4.9.2/bin/../lib/gcc/x86_64-unknown-linux-gnu/4.9.2/ -mtune=corei7 -march=x86-64 -g -Og
REM COMMAND_LINE
REM seed 2137957689 -1280278760 490779640 -2090331029 1785453373 1439368964 893137840 -1284747806 1925992784 -1690922359 2089595725 -114811205
REM
REM S 3|1.8|5|6|7|30:31:32(qc=5)
REM O 2|1.5|12|13|15|20:21(qc=5)
REM Li 1|1.3|8|9|10|10U:20(qc=5)
REM Fe 3|2.2|2.0|1.0|8|9|10|40:41:32(qc=5)
REM 
CELL 1.54180    3.21759    9.55956    8.34480  124.94476   64.62443   90.00001
LATT -1
SFAC Li O  S  Fe 
Li     1  0.1850650000000 -0.3553340000000 -0.2023330000000 1.0   0.03
Li     1 -0.1850670000000 -0.1530000000000  0.2023350000000 1.0   0.03
Li     1  0.7286520000000 -0.1166720000000 -0.2786430000000 1.0  -0.01
Li     1 -0.7286540000000  0.1619710000000  0.2786450000000 1.0  -0.01
O      2 -0.2902850000000  0.1043490000000  0.3329010000000 1.0  -0.18
O      2  0.2902830000000 -0.2285520000000 -0.3328990000000 1.0  -0.18
O      2 -0.5000010000000 -0.3108100000000  0.0000010000000 1.0  -0.23
S      3 -0.2663450000000  0.1682810000000 -0.2330580000000 1.0   0.08
S      3  0.2663430000000  0.4013390000000  0.2330600000000 1.0   0.08
Fe     4 -0.6166250000000  0.2180260000000 -0.3669350000000 1.0  -1.91
Fe     4  0.6166230000000 -0.4150370000000  0.3669370000000 1.0  -1.91
Fe     4 -0.5000010000000  0.5000900000000  0.0000010000000 1.0  -3.03
END
