TITL LFSO-Li2Fe3S2O2-200921-011931-37b1ba 0.0131 152.882701 -4.46621640E+003 -5.45575 5.90765 9 (P3) n - 1
REM
REM Run started: Mon, 21 Sep 2020 03:53:05 +0100 in /lustre/scratch/uccabz1/launch_tmp/launcher_2020-09-21-00-19-29-604749
REM CASTEP 20.1 from code version af48c487+ pr-geom-scf-spinfix Tue Jun 2 15:39:59 2020 +0100
REM Functional Perdew Burke Ernzerhof Relativity Koelling-Harmon Dispersion off
REM Cut-off 340.0000 eV Grid scale 1.7500 Gmax 16.5316 1/A FBSC none
REM MP grid 4 4 2 Offset 0.000 0.000 0.000 No. kpts 16 Spacing 0.07
REM Total runtime: 9767.42 s
REM Overall efficiency: 97 %
REM
REM
REM
REM compiler GCC version 4.9.2
REM options -cpp -iprefix /lustre/shared/ucl/apps/gcc/4.9.2/bin/../lib/gcc/x86_64-unknown-linux-gnu/4.9.2/ -mtune=corei7 -march=x86-64 -g -Og
REM COMMAND_LINE
REM seed 1242011126 1633758605 -268842239 -1876562608 2071746946 -1211486951 852715540 1611819420 1840729572 -1054124408 -696527834 354719062
REM
REM S 3|1.8|5|6|7|30:31:32(qc=5)
REM O 2|1.5|12|13|15|20:21(qc=5)
REM Li 1|1.3|8|9|10|10U:20(qc=5)
REM Fe 3|2.2|2.0|1.0|8|9|10|40:41:32(qc=5)
REM 
CELL 1.54180    4.44094    4.44094    8.95114   90.00000   90.00000  120.00000
LATT -1
SFAC Li O  S  Fe 
Li     1 -0.0000000000000 -0.0000000000000 -0.3205040000000 1.0   0.12
Li     1 -0.3333330000000  0.3333330000000 -0.3912480000000 1.0   0.00
O      2 -0.0000000000000 -0.0000000000000  0.0313130000000 1.0  -0.03
O      2 -0.3333330000000  0.3333330000000  0.4122720000000 1.0  -0.39
S      3  0.3333330000000 -0.3333330000000  0.1064100000000 1.0   0.05
S      3 -0.0000000000000 -0.0000000000000 -0.5760450000000 1.0  -0.35
Fe     4 -0.0087670000000  0.3461280000000 -0.0690650000000 1.0  -1.62
Fe     4  0.3548950000000  0.0087670000000 -0.0690650000000 1.0  -1.62
Fe     4 -0.3461280000000 -0.3548950000000 -0.0690650000000 1.0  -1.62
END
