TITL LFSO-Li4FeSO2-200910-072231-4029aa -0.0315 141.647722 -2.84051192E+003 -2.78742 3.60149 8 (Pm) n - 1
REM
REM Run started: Thu, 10 Sep 2020 08:02:43 +0100 in /lustre/scratch/uccabz1/launch_tmp/launcher_2020-09-10-06-22-29-478537
REM CASTEP 20.1 from code version af48c487+ pr-geom-scf-spinfix Tue Jun 2 15:39:59 2020 +0100
REM Functional Perdew Burke Ernzerhof Relativity Koelling-Harmon Dispersion off
REM Cut-off 340.0000 eV Grid scale 1.7500 Gmax 16.5316 1/A FBSC none
REM MP grid 4 4 2 Offset 0.000 0.000 0.000 No. kpts 8 Spacing 0.07
REM Total runtime: 2438.17 s
REM Overall efficiency: 86.5 %
REM
REM
REM
REM compiler GCC version 4.9.2
REM options -cpp -iprefix /lustre/shared/ucl/apps/gcc/4.9.2/bin/../lib/gcc/x86_64-unknown-linux-gnu/4.9.2/ -mtune=corei7 -march=x86-64 -g -Og
REM COMMAND_LINE
REM seed -11945924 2127225357 -1269897676 -618037705 815255400 1954095196 -329827193 807141140 -402661793 1353591085 -1934751177 -363331060
REM
REM S 3|1.8|5|6|7|30:31:32(qc=5)
REM O 2|1.5|12|13|15|20:21(qc=5)
REM Li 1|1.3|8|9|10|10U:20(qc=5)
REM Fe 3|2.2|2.0|1.0|8|9|10|40:41:32(qc=5)
REM 
CELL 1.54180    3.81819    3.70995   10.10808   90.00000   90.00000   98.40088
LATT -1
SFAC Li O  S  Fe 
Li     1  0.3617780000000 -0.3796450000000  0.3523270000000 1.0   0.19
Li     1  0.3617780000000 -0.3796450000000 -0.3523270000000 1.0   0.19
Li     1 -0.1240450000000 -0.2712600000000  0.1669890000000 1.0   0.00
Li     1 -0.1240450000000 -0.2712600000000 -0.1669890000000 1.0   0.00
O      2  0.3678720000000 -0.2973760000000  0.1815870000000 1.0  -0.16
O      2  0.3678720000000 -0.2973760000000 -0.1815870000000 1.0  -0.16
S      3 -0.1794940000000  0.2527850000000  0.0000000000000 1.0  -0.06
Fe     4  0.3890290000000 -0.3286660000000  0.0000000000000 1.0  -2.79
END
