TITL LFSO-Li4Fe3S4O-200925-183911-a3094a -0.0137 420.601362 -1.00758373E+004 14.2732 16.1367 24 (Pmm2) n - 1
REM
REM Run started: Sat, 26 Sep 2020 01:36:21 +0100 in /lustre/scratch/uccabz1/launch_tmp/launcher_2020-09-25-17-39-08-870744
REM CASTEP 20.1 from code version af48c487+ pr-geom-scf-spinfix Tue Jun 2 15:39:59 2020 +0100
REM Functional Perdew Burke Ernzerhof Relativity Koelling-Harmon Dispersion off
REM Cut-off 340.0000 eV Grid scale 1.7500 Gmax 16.5316 1/A FBSC none
REM MP grid 3 2 2 Offset 0.000 0.000 0.000 No. kpts 2 Spacing 0.07
REM Total runtime: 25124.6 s
REM Overall efficiency: 80 %
REM
REM
REM
REM compiler GCC version 4.9.2
REM options -cpp -iprefix /lustre/shared/ucl/apps/gcc/4.9.2/bin/../lib/gcc/x86_64-unknown-linux-gnu/4.9.2/ -mtune=corei7 -march=x86-64 -g -Og
REM COMMAND_LINE
REM seed 1805439401 -1187505390 1163165311 -1624329719 -1016816287 -1095282831 -931919971 2138980847 1078724589 -1946585194 -410558239 840657309
REM
REM S 3|1.8|5|6|7|30:31:32(qc=5)
REM O 2|1.5|12|13|15|20:21(qc=5)
REM Li 1|1.3|8|9|10|10U:20(qc=5)
REM Fe 3|2.2|2.0|1.0|8|9|10|40:41:32(qc=5)
REM 
CELL 1.54180    5.34527   10.08070    7.80567   90.00000   90.00000   90.00000
LATT -1
SFAC Li O  S  Fe 
Li     1 -0.2700000000000 -0.1619750000000  0.1577590000000 1.0  -0.04
Li     1  0.2700000000000  0.1619750000000  0.1577590000000 1.0  -0.04
Li     1  0.2700000000000 -0.1619750000000  0.1577590000000 1.0  -0.04
Li     1 -0.2700000000000  0.1619750000000  0.1577590000000 1.0  -0.04
Li     1  0.2603630000000  0.3595290000000  0.3248780000000 1.0  -0.04
Li     1 -0.2603630000000 -0.3595290000000  0.3248780000000 1.0  -0.04
Li     1 -0.2603630000000  0.3595290000000  0.3248780000000 1.0  -0.04
Li     1  0.2603630000000 -0.3595290000000  0.3248780000000 1.0  -0.04
O      2  0.5000000000000  0.3266850000000  0.1602550000000 1.0   0.11
O      2  0.5000000000000 -0.3266850000000  0.1602550000000 1.0   0.11
S      3 -0.2854140000000 -0.1640650000000 -0.1383330000000 1.0  -0.04
S      3  0.2854140000000  0.1640650000000 -0.1383330000000 1.0  -0.04
S      3  0.2854140000000 -0.1640650000000 -0.1383330000000 1.0  -0.04
S      3 -0.2854140000000  0.1640650000000 -0.1383330000000 1.0  -0.04
S      3  0.2022800000000 -0.1576120000000  0.4568420000000 1.0  -0.02
S      3 -0.2022800000000  0.1576120000000  0.4568420000000 1.0  -0.02
S      3 -0.2022800000000 -0.1576120000000  0.4568420000000 1.0  -0.02
S      3  0.2022800000000  0.1576120000000  0.4568420000000 1.0  -0.02
Fe     4  0.2325390000000 -0.3815460000000 -0.0166050000000 1.0   2.99
Fe     4 -0.2325390000000  0.3815460000000 -0.0166050000000 1.0   2.99
Fe     4 -0.2325390000000 -0.3815460000000 -0.0166050000000 1.0   2.99
Fe     4  0.2325390000000  0.3815460000000 -0.0166050000000 1.0   2.99
Fe     4  0.2761960000000  0.0000000000000 -0.3350330000000 1.0   1.35
Fe     4 -0.2761960000000  0.0000000000000 -0.3350330000000 1.0   1.35
END
