TITL LFSO-LiFe3S4O-200909-093929-9ab70d -0.0545 315.222253 -8.88530783E+003 -12.0373 13.3428 18 (P3) n - 1
REM
REM Run started: Wed, 09 Sep 2020 16:42:30 +0100 in /lustre/scratch/uccabz1/launch_tmp/launcher_2020-09-09-08-39-27-382310
REM CASTEP 20.1 from code version af48c487+ pr-geom-scf-spinfix Tue Jun 2 15:39:59 2020 +0100
REM Functional Perdew Burke Ernzerhof Relativity Koelling-Harmon Dispersion off
REM Cut-off 340.0000 eV Grid scale 1.7500 Gmax 16.5316 1/A FBSC none
REM MP grid 3 3 2 Offset 0.000 0.000 0.000 No. kpts 5 Spacing 0.07
REM Total runtime: 25510.3 s
REM Overall efficiency: 79.75 %
REM
REM
REM
REM compiler GCC version 4.9.2
REM options -cpp -iprefix /lustre/shared/ucl/apps/gcc/4.9.2/bin/../lib/gcc/x86_64-unknown-linux-gnu/4.9.2/ -mtune=corei7 -march=x86-64 -g -Og
REM COMMAND_LINE
REM seed -1608276291 1287813285 -1666286352 -1400951243 -1052288729 1385821103 2093839240 -351391424 -1354548815 -1133633861 -1797528009 1070925823
REM
REM S 3|1.8|5|6|7|30:31:32(qc=5)
REM O 2|1.5|12|13|15|20:21(qc=5)
REM Li 1|1.3|8|9|10|10U:20(qc=5)
REM Fe 3|2.2|2.0|1.0|8|9|10|40:41:32(qc=5)
REM 
CELL 1.54180    6.56841    6.56841    8.43657   90.00000   90.00000  120.00000
LATT -1
SFAC Li O  S  Fe 
Li     1 -0.3333330000000  0.3333330000000 -0.2140390000000 1.0   0.14
Li     1 -0.3333330000000  0.3333330000000 -0.5611580000000 1.0   0.07
O      2 -0.3333330000000  0.3333330000000  0.0218440000000 1.0  -0.09
O      2  0.3333330000000 -0.3333330000000 -0.1735570000000 1.0  -0.27
S      3  0.3165470000000 -0.0016070000000 -0.4076330000000 1.0   0.01
S      3  0.0016070000000  0.3181540000000 -0.4076330000000 1.0   0.01
S      3 -0.3181540000000 -0.3165470000000 -0.4076330000000 1.0   0.01
S      3  0.2815210000000 -0.0630240000000  0.1276200000000 1.0   0.03
S      3  0.0630240000000  0.3445450000000  0.1276200000000 1.0   0.03
S      3 -0.3445450000000 -0.2815210000000  0.1276200000000 1.0   0.03
S      3  0.0000000000000 -0.0000000000000  0.5042990000000 1.0   0.16
S      3  0.0000000000000 -0.0000000000000 -0.1300170000000 1.0  -0.14
Fe     4 -0.3602530000000 -0.2559410000000 -0.1556650000000 1.0  -1.98
Fe     4  0.2559410000000 -0.1043110000000 -0.1556650000000 1.0  -1.98
Fe     4  0.1043110000000  0.3602530000000 -0.1556650000000 1.0  -1.98
Fe     4 -0.0656600000000 -0.3972490000000  0.1100370000000 1.0  -2.03
Fe     4  0.3972490000000  0.3315890000000  0.1100370000000 1.0  -2.03
Fe     4 -0.3315890000000  0.0656600000000  0.1100370000000 1.0  -2.03
END
