TITL LFSO-Li4Fe2SO3-200910-224039-14ace9 0.0417 268.518342 -8.28885042E+003 15.9716 16.2471 20 (Cc) n - 1
REM
REM Run started: Fri, 11 Sep 2020 07:30:10 +0100 in /lustre/scratch/uccabz1/launch_tmp/launcher_2020-09-10-21-40-37-922580
REM CASTEP 20.1 from code version af48c487+ pr-geom-scf-spinfix Tue Jun 2 15:39:59 2020 +0100
REM Functional Perdew Burke Ernzerhof Relativity Koelling-Harmon Dispersion off
REM Cut-off 340.0000 eV Grid scale 1.7500 Gmax 16.5316 1/A FBSC none
REM MP grid 4 4 2 Offset 0.000 0.000 0.000 No. kpts 10 Spacing 0.07
REM Total runtime: 35314.1 s
REM Overall efficiency: 77.8333 %
REM
REM
REM
REM compiler GCC version 4.9.2
REM options -cpp -iprefix /lustre/shared/ucl/apps/gcc/4.9.2/bin/../lib/gcc/x86_64-unknown-linux-gnu/4.9.2/ -mtune=corei7 -march=x86-64 -g -Og
REM COMMAND_LINE
REM seed 2104998011 -1514596097 1509497139 1844101881 -755771195 -1929785215 7107678 1925565648 -1275092400 -105138414 1771302185 -888323337
REM
REM S 3|1.8|5|6|7|30:31:32(qc=5)
REM O 2|1.5|12|13|15|20:21(qc=5)
REM Li 1|1.3|8|9|10|10U:20(qc=5)
REM Fe 3|2.2|2.0|1.0|8|9|10|40:41:32(qc=5)
REM 
CELL 1.54180    4.74890    4.74890   12.00056   94.71916   94.71916   92.24008
LATT -1
SFAC Li O  S  Fe 
Li     1  0.3745940000000  0.2049570000000  0.0037730000000 1.0  -0.07
Li     1 -0.2950430000000 -0.1254060000000 -0.4962270000000 1.0  -0.07
Li     1  0.2519410000000 -0.0451020000000 -0.3633460000000 1.0   0.01
Li     1  0.4548980000000 -0.2480590000000  0.1366540000000 1.0   0.01
Li     1 -0.0742270000000 -0.4486540000000 -0.0144550000000 1.0  -0.01
Li     1  0.0513460000000  0.4257730000000  0.4855450000000 1.0  -0.01
Li     1 -0.1310520000000  0.5376960000000 -0.2826920000000 1.0  -0.04
Li     1  0.0376960000000  0.3689480000000  0.2173080000000 1.0  -0.04
O      2  0.3252560000000 -0.4129500000000 -0.0053200000000 1.0   0.32
O      2  0.0870500000000 -0.1747440000000  0.4946800000000 1.0   0.32
O      2 -0.1046350000000  0.2098630000000  0.3371960000000 1.0   0.33
O      2 -0.2901370000000  0.3953650000000 -0.1628040000000 1.0   0.33
O      2  0.1219270000000 -0.1499250000000 -0.2245270000000 1.0   0.25
O      2  0.3500750000000 -0.3780730000000  0.2754730000000 1.0   0.25
S      3 -0.4423260000000  0.3615890000000 -0.4417730000000 1.0   0.14
S      3 -0.1384110000000  0.0576740000000  0.0582270000000 1.0   0.14
Fe     4 -0.1532270000000  0.0376700000000 -0.1390470000000 1.0   3.49
Fe     4  0.5376700000000 -0.6532270000000  0.3609530000000 1.0   3.49
Fe     4 -0.5819030000000 -0.3429310000000 -0.1476260000000 1.0   3.56
Fe     4  0.1570690000000 -0.0819030000000  0.3523740000000 1.0   3.56
END
