TITL LFSO-Li2Fe2S2O-200913-113444-7cbb4c -0.0291 87.824783 -3.17115649E+003 -0.232104 0.303409 7 (R3m) n - 1
REM
REM Run started: Sun, 13 Sep 2020 13:56:51 +0100 in /lustre/scratch/uccabz1/launch_tmp/launcher_2020-09-13-10-34-42-629479
REM CASTEP 20.1 from code version af48c487+ pr-geom-scf-spinfix Tue Jun 2 15:39:59 2020 +0100
REM Functional Perdew Burke Ernzerhof Relativity Koelling-Harmon Dispersion off
REM Cut-off 340.0000 eV Grid scale 1.7500 Gmax 16.5316 1/A FBSC none
REM MP grid 5 5 2 Offset 0.000 0.000 0.000 No. kpts 15 Spacing 0.07
REM Total runtime: 8561.67 s
REM Overall efficiency: 92 %
REM
REM
REM
REM compiler GCC version 4.9.2
REM options -cpp -iprefix /lustre/shared/ucl/apps/gcc/4.9.2/bin/../lib/gcc/x86_64-unknown-linux-gnu/4.9.2/ -mtune=corei7 -march=x86-64 -g -Og
REM COMMAND_LINE
REM seed -1701001045 286706120 170252658 984825050 145141003 -448948564 -1018476547 366056112 -831187143 -1071172521 661231203 1530358609
REM
REM S 3|1.8|5|6|7|30:31:32(qc=5)
REM O 2|1.5|12|13|15|20:21(qc=5)
REM Li 1|1.3|8|9|10|10U:20(qc=5)
REM Fe 3|2.2|2.0|1.0|8|9|10|40:41:32(qc=5)
REM 
CELL 1.54180    3.73795    3.73795    7.57210   75.71035   75.71035   60.00000
LATT -1
SFAC Li O  S  Fe 
Li     1 -0.4156310000000 -0.4156310000000  0.2468930000000 1.0   0.01
Li     1 -0.3037960000000 -0.3037960000000 -0.0886120000000 1.0  -0.00
O      2  0.0911090000000  0.0911090000000 -0.2733260000000 1.0  -0.00
S      3 -0.1687910000000 -0.1687910000000  0.5063720000000 1.0   0.00
S      3  0.2899530000000  0.2899530000000  0.1301410000000 1.0  -0.05
Fe     4  0.4564610000000  0.4564610000000 -0.3693840000000 1.0   0.02
Fe     4  0.1814530000000  0.1814530000000  0.4556410000000 1.0  -0.21
END
