TITL LFSO-Li6FeSO3-200909-213655-449ca2 0.0490 156.084360 -3.68083220E+003 4.00000 4.24343 11 (Pm) n - 1
REM
REM Run started: Wed, 09 Sep 2020 23:04:07 +0100 in /lustre/scratch/uccabz1/launch_tmp/launcher_2020-09-09-20-36-54-331828
REM CASTEP 20.1 from code version af48c487+ pr-geom-scf-spinfix Tue Jun 2 15:39:59 2020 +0100
REM Functional Perdew Burke Ernzerhof Relativity Koelling-Harmon Dispersion off
REM Cut-off 340.0000 eV Grid scale 1.7500 Gmax 16.5316 1/A FBSC none
REM MP grid 5 3 2 Offset 0.000 0.000 0.000 No. kpts 8 Spacing 0.07
REM Total runtime: 5673.97 s
REM Overall efficiency: 94.9167 %
REM
REM
REM
REM compiler GCC version 4.9.2
REM options -cpp -iprefix /lustre/shared/ucl/apps/gcc/4.9.2/bin/../lib/gcc/x86_64-unknown-linux-gnu/4.9.2/ -mtune=corei7 -march=x86-64 -g -Og
REM COMMAND_LINE
REM seed -665590213 643400774 2071742472 -608982242 914143588 -1838887143 386998071 -1578094036 1921435995 -1683943077 2006101891 -362606297
REM
REM S 3|1.8|5|6|7|30:31:32(qc=5)
REM O 2|1.5|12|13|15|20:21(qc=5)
REM Li 1|1.3|8|9|10|10U:20(qc=5)
REM Fe 3|2.2|2.0|1.0|8|9|10|40:41:32(qc=5)
REM 
CELL 1.54180    3.81065    5.29095    8.34652   90.00000   90.00000  111.94903
LATT -1
SFAC Li O  S  Fe 
Li     1  0.1492010000000  0.3391660000000  0.2001340000000 1.0  -0.06
Li     1  0.1492010000000  0.3391660000000 -0.2001340000000 1.0  -0.06
Li     1 -0.1754990000000 -0.3400210000000 -0.1712570000000 1.0  -0.02
Li     1 -0.1754990000000 -0.3400210000000  0.1712570000000 1.0  -0.02
Li     1 -0.5168350000000  0.0309680000000 -0.3542020000000 1.0   0.02
Li     1 -0.5168350000000  0.0309680000000  0.3542020000000 1.0   0.02
O      2 -0.3847950000000  0.2782540000000 -0.1898340000000 1.0   0.19
O      2 -0.3847950000000  0.2782540000000  0.1898340000000 1.0   0.19
O      2  0.2952940000000 -0.3097890000000  0.0000000000000 1.0   0.24
S      3 -0.0985450000000 -0.1317110000000 -0.5000000000000 1.0   0.01
Fe     4 -0.4931900000000  0.0668350000000  0.0000000000000 1.0   3.49
END
