TITL LFSO-LiFe3S4O-200909-100725-3deb5b 0.0255 373.405133 -8.88633557E+003 -5.24254 6.16607 18 (Iba2) n - 1
REM
REM Run started: Thu, 10 Sep 2020 01:04:50 +0100 in /lustre/scratch/uccabz1/launch_tmp/launcher_2020-09-09-09-07-24-174120
REM CASTEP 20.1 from code version af48c487+ pr-geom-scf-spinfix Tue Jun 2 15:39:59 2020 +0100
REM Functional Perdew Burke Ernzerhof Relativity Koelling-Harmon Dispersion off
REM Cut-off 340.0000 eV Grid scale 1.7500 Gmax 16.5316 1/A FBSC none
REM MP grid 3 2 2 Offset 0.000 0.000 0.000 No. kpts 5 Spacing 0.07
REM Total runtime: 55821.8 s
REM Overall efficiency: 84.4 %
REM
REM
REM
REM compiler GCC version 4.9.2
REM options -cpp -iprefix /lustre/shared/ucl/apps/gcc/4.9.2/bin/../lib/gcc/x86_64-unknown-linux-gnu/4.9.2/ -mtune=corei7 -march=x86-64 -g -Og
REM COMMAND_LINE
REM seed -1322022363 471417039 1291502860 -1583609285 1386681361 -412235334 2051899054 -2079697393 2013944083 1504036153 -1685033015 -1066691021
REM
REM S 3|1.8|5|6|7|30:31:32(qc=5)
REM O 2|1.5|12|13|15|20:21(qc=5)
REM Li 1|1.3|8|9|10|10U:20(qc=5)
REM Fe 3|2.2|2.0|1.0|8|9|10|40:41:32(qc=5)
REM 
CELL 1.54180    6.08678    8.40293    8.40293   82.42846   68.76574   68.76574
LATT -1
SFAC Li O  S  Fe 
Li     1 -0.3821520000000  0.3821520000000  0.3821520000000 1.0  -0.02
Li     1  0.1178480000000 -0.1178480000000 -0.1178480000000 1.0  -0.02
O      2  0.2977290000000  0.2022710000000  0.2022710000000 1.0  -0.04
O      2 -0.2022710000000 -0.2977290000000 -0.2977290000000 1.0  -0.04
S      3  0.2141510000000  0.3903650000000 -0.4258570000000 1.0   0.03
S      3 -0.1786600000000 -0.4258570000000  0.3903650000000 1.0   0.03
S      3 -0.2858490000000  0.0741430000000 -0.1096350000000 1.0   0.03
S      3  0.3213400000000 -0.1096350000000  0.0741430000000 1.0   0.03
S      3 -0.2341910000000  0.0384640000000  0.3297860000000 1.0  -0.18
S      3 -0.1340600000000  0.3297860000000  0.0384640000000 1.0  -0.18
S      3  0.2658090000000 -0.1702140000000 -0.4615360000000 1.0  -0.18
S      3  0.3659400000000 -0.4615360000000 -0.1702140000000 1.0  -0.18
Fe     4  0.0542030000000  0.1371330000000  0.1811710000000 1.0  -0.96
Fe     4 -0.3725070000000  0.1811710000000  0.1371330000000 1.0  -0.96
Fe     4 -0.4457970000000 -0.3188290000000 -0.3628670000000 1.0  -0.96
Fe     4  0.1274930000000 -0.3628670000000 -0.3188290000000 1.0  -0.96
Fe     4 -0.3632790000000 -0.1367210000000 -0.1367210000000 1.0  -0.36
Fe     4  0.1367210000000  0.3632790000000  0.3632790000000 1.0  -0.36
END
