TITL LFSO-Li3FeSO2-200911-163122-fbe50c -0.1100 181.561928 -5.28661585E+003 -8.45904 8.57046 14 (Pc) n - 1
REM
REM Run started: Fri, 11 Sep 2020 22:36:51 +0100 in /lustre/scratch/uccabz1/launch_tmp/launcher_2020-09-11-15-31-20-790013
REM CASTEP 20.1 from code version af48c487+ pr-geom-scf-spinfix Tue Jun 2 15:39:59 2020 +0100
REM Functional Perdew Burke Ernzerhof Relativity Koelling-Harmon Dispersion off
REM Cut-off 340.0000 eV Grid scale 1.7500 Gmax 16.5316 1/A FBSC none
REM MP grid 5 5 2 Offset 0.000 0.000 0.000 No. kpts 13 Spacing 0.07
REM Total runtime: 24419 s
REM Overall efficiency: 95.9167 %
REM
REM
REM
REM compiler GCC version 4.9.2
REM options -cpp -iprefix /lustre/shared/ucl/apps/gcc/4.9.2/bin/../lib/gcc/x86_64-unknown-linux-gnu/4.9.2/ -mtune=corei7 -march=x86-64 -g -Og
REM COMMAND_LINE
REM seed -708028024 -1886346681 -1550487652 -1629079952 1215787356 -1801592789 -455461592 -900110283 -1719196826 2047640382 -1801308184 -2041152512
REM
REM S 3|1.8|5|6|7|30:31:32(qc=5)
REM O 2|1.5|12|13|15|20:21(qc=5)
REM Li 1|1.3|8|9|10|10U:20(qc=5)
REM Fe 3|2.2|2.0|1.0|8|9|10|40:41:32(qc=5)
REM 
CELL 1.54180    5.69659    6.70217    9.41753   90.00000   90.00000  149.67124
LATT -1
SFAC Li O  S  Fe 
Li     1  0.3060380000000 -0.2347620000000 -0.2468460000000 1.0   0.00
Li     1 -0.1939620000000 -0.2347620000000  0.2468460000000 1.0   0.00
Li     1 -0.0950310000000 -0.1672090000000 -0.1929110000000 1.0   0.02
Li     1 -0.5950310000000 -0.1672090000000  0.1929110000000 1.0   0.02
Li     1  0.5588080000000  0.3217860000000 -0.3964300000000 1.0  -0.00
Li     1  0.0588080000000  0.3217860000000  0.3964300000000 1.0  -0.00
O      2 -0.3773060000000  0.3473680000000 -0.1945670000000 1.0  -0.30
O      2  0.1226940000000  0.3473680000000  0.1945670000000 1.0  -0.30
O      2 -0.3908850000000 -0.1713970000000 -0.0975080000000 1.0  -0.32
O      2  0.1091150000000 -0.1713970000000  0.0975080000000 1.0  -0.32
S      3  0.8002710000000 -0.1797630000000 -0.4915090000000 1.0  -0.01
S      3  0.3002710000000 -0.1797630000000  0.4915090000000 1.0  -0.01
Fe     4 -0.3822890000000  0.3279020000000  0.0007530000000 1.0  -3.63
Fe     4  0.1177110000000  0.3279020000000 -0.0007530000000 1.0  -3.63
END
