TITL LFSO-Li4Fe2SO3-200910-215933-3595f2 0.0401 204.402282 -4.14364981E+003 7.86181 8.00418 10 (P2) n - 1
REM
REM Run started: Fri, 11 Sep 2020 00:00:36 +0100 in /lustre/scratch/uccabz1/launch_tmp/launcher_2020-09-10-20-59-31-938486
REM CASTEP 20.1 from code version af48c487+ pr-geom-scf-spinfix Tue Jun 2 15:39:59 2020 +0100
REM Functional Perdew Burke Ernzerhof Relativity Koelling-Harmon Dispersion off
REM Cut-off 340.0000 eV Grid scale 1.7500 Gmax 16.5316 1/A FBSC none
REM MP grid 6 3 2 Offset 0.000 0.000 0.000 No. kpts 12 Spacing 0.07
REM Total runtime: 8155.98 s
REM Overall efficiency: 95.6667 %
REM
REM
REM
REM compiler GCC version 4.9.2
REM options -cpp -iprefix /lustre/shared/ucl/apps/gcc/4.9.2/bin/../lib/gcc/x86_64-unknown-linux-gnu/4.9.2/ -mtune=corei7 -march=x86-64 -g -Og
REM COMMAND_LINE
REM seed 86222528 84824842 241062074 -1480557879 -1650600556 1244422325 -1825212954 1293400668 637171264 -441111188 409646666 -403063760
REM
REM S 3|1.8|5|6|7|30:31:32(qc=5)
REM O 2|1.5|12|13|15|20:21(qc=5)
REM Li 1|1.3|8|9|10|10U:20(qc=5)
REM Fe 3|2.2|2.0|1.0|8|9|10|40:41:32(qc=5)
REM 
CELL 1.54180    2.99211    6.28012   11.99835   90.00000   65.04044   90.00000
LATT -1
SFAC Li O  S  Fe 
Li     1  0.3313610000000 -0.1455960000000  0.1051040000000 1.0   0.01
Li     1 -0.3313610000000 -0.1455960000000 -0.1051040000000 1.0   0.01
Li     1  0.4727300000000  0.6255820000000  0.3314220000000 1.0   0.03
Li     1 -0.4727300000000  0.6255820000000 -0.3314220000000 1.0   0.03
O      2  0.1369930000000 -0.3909650000000  0.2288030000000 1.0   0.20
O      2 -0.1369930000000 -0.3909650000000 -0.2288030000000 1.0   0.20
O      2  0.0000000000000 -0.2491820000000  0.0000000000000 1.0   0.32
S      3 -0.5000000000000  0.2540750000000  0.0000000000000 1.0   0.08
Fe     4 -0.1824120000000  0.4904290000000  0.1135970000000 1.0   3.49
Fe     4  0.1824120000000  0.4904290000000 -0.1135970000000 1.0   3.49
END
