TITL LFSO-Li6FeS3O-200910-005929-9fa8a8 0.0100 162.855849 -3.41256443E+003 4.00000 4.09461 11 (Fmm2) n - 1
REM
REM Run started: Thu, 10 Sep 2020 03:06:08 +0100 in /lustre/scratch/uccabz1/launch_tmp/launcher_2020-09-09-23-59-27-687302
REM CASTEP 20.1 from code version af48c487+ pr-geom-scf-spinfix Tue Jun 2 15:39:59 2020 +0100
REM Functional Perdew Burke Ernzerhof Relativity Koelling-Harmon Dispersion off
REM Cut-off 340.0000 eV Grid scale 1.7500 Gmax 16.5316 1/A FBSC none
REM MP grid 3 3 4 Offset 0.000 0.000 0.000 No. kpts 12 Spacing 0.07
REM Total runtime: 8455.49 s
REM Overall efficiency: 96.1111 %
REM
REM
REM
REM compiler GCC version 4.9.2
REM options -cpp -iprefix /lustre/shared/ucl/apps/gcc/4.9.2/bin/../lib/gcc/x86_64-unknown-linux-gnu/4.9.2/ -mtune=corei7 -march=x86-64 -g -Og
REM COMMAND_LINE
REM seed -1642218518 -1418067906 983002512 1508918502 -641444743 -1866958400 282258163 1992258095 -1433992579 2096633055 782760395 193719585
REM
REM S 3|1.8|5|6|7|30:31:32(qc=5)
REM O 2|1.5|12|13|15|20:21(qc=5)
REM Li 1|1.3|8|9|10|10U:20(qc=5)
REM Fe 3|2.2|2.0|1.0|8|9|10|40:41:32(qc=5)
REM 
CELL 1.54180    6.59954    6.59954    6.59813  130.38748  130.38748   72.80473
LATT -1
SFAC Li O  S  Fe 
Li     1 -0.1710580000000  0.2878550000000 -0.1291870000000 1.0  -0.04
Li     1  0.0418710000000  0.5829590000000 -0.1291870000000 1.0  -0.04
Li     1  0.5829590000000  0.0418710000000 -0.1291870000000 1.0  -0.04
Li     1  0.2878550000000 -0.1710580000000 -0.1291870000000 1.0  -0.04
Li     1  0.0420060000000  0.0420060000000  0.3502140000000 1.0   0.01
Li     1  0.3082080000000  0.3082080000000  0.3502140000000 1.0   0.01
O      2 -0.0516520000000 -0.0516520000000 -0.1033050000000 1.0   0.18
S      3 -0.3143110000000  0.1856890000000  0.3713770000000 1.0   0.12
S      3  0.1856890000000 -0.3143110000000  0.3713770000000 1.0   0.12
S      3  0.4257670000000  0.4257670000000 -0.1484650000000 1.0   0.10
Fe     4 -0.2892100000000 -0.2892100000000 -0.5784200000000 1.0   3.61
END
