TITL LFSO-Li6FeS3O-200910-012959-85c5aa -0.1784 398.521102 -6.82515704E+003 7.99998 8.37951 22 (Cc) n - 1
REM
REM Run started: Thu, 10 Sep 2020 14:33:45 +0100 in /lustre/scratch/uccabz1/launch_tmp/launcher_2020-09-10-00-29-57-635875
REM CASTEP 20.1 from code version af48c487+ pr-geom-scf-spinfix Tue Jun 2 15:39:59 2020 +0100
REM Functional Perdew Burke Ernzerhof Relativity Koelling-Harmon Dispersion off
REM Cut-off 340.0000 eV Grid scale 1.7500 Gmax 16.5316 1/A FBSC none
REM MP grid 3 3 2 Offset 0.000 0.000 0.000 No. kpts 9 Spacing 0.07
REM Total runtime: 54831.8 s
REM Overall efficiency: 96.5 %
REM
REM
REM
REM compiler GCC version 4.9.2
REM options -cpp -iprefix /lustre/shared/ucl/apps/gcc/4.9.2/bin/../lib/gcc/x86_64-unknown-linux-gnu/4.9.2/ -mtune=corei7 -march=x86-64 -g -Og
REM COMMAND_LINE
REM seed 955941509 242124012 -604237944 -49081154 -117534138 1865179787 71521559 1831916987 1303779872 -2002097525 605574504 1625590506
REM
REM S 3|1.8|5|6|7|30:31:32(qc=5)
REM O 2|1.5|12|13|15|20:21(qc=5)
REM Li 1|1.3|8|9|10|10U:20(qc=5)
REM Fe 3|2.2|2.0|1.0|8|9|10|40:41:32(qc=5)
REM 
CELL 1.54180    4.62692    6.97337   15.80135   56.05937   81.58111   70.62457
LATT -1
SFAC Li O  S  Fe 
Li     1  0.0845830000000 -0.2148800000000 -0.4505900000000 1.0   0.01
Li     1  0.0808880000000  0.2851200000000  0.0494100000000 1.0   0.01
Li     1 -0.0953550000000 -0.0266100000000  0.2599990000000 1.0  -0.10
Li     1  0.3619660000000  0.4733900000000 -0.2400010000000 1.0  -0.10
Li     1 -0.5014380000000 -0.1196420000000  0.2084900000000 1.0  -0.01
Li     1 -0.0874100000000  0.3803580000000 -0.2915100000000 1.0  -0.01
Li     1 -0.5701600000000 -0.4390350000000  0.1100980000000 1.0   0.03
Li     1  0.3990970000000  0.0609650000000 -0.3899020000000 1.0   0.03
Li     1 -0.2865430000000 -0.5473440000000  0.4698520000000 1.0   0.00
Li     1 -0.1359650000000 -0.0473440000000 -0.0301480000000 1.0   0.00
Li     1  0.0328170000000  0.5241000000000  0.2985100000000 1.0   0.00
Li     1 -0.3554270000000  0.0241000000000 -0.2014900000000 1.0   0.00
O      2 -0.2794970000000  0.2411040000000 -0.1575630000000 1.0   0.20
O      2 -0.3040440000000 -0.2588960000000  0.3424370000000 1.0   0.20
S      3 -0.3364620000000  0.6421390000000 -0.0460100000000 1.0   0.13
S      3  0.2403340000000  0.1421390000000 -0.5460100000000 1.0   0.13
S      3  0.0814260000000 -0.1266850000000  0.1295820000000 1.0   0.03
S      3  0.4156780000000  0.3733150000000 -0.3704180000000 1.0   0.03
S      3 -0.8167150000000  0.2567160000000  0.2015180000000 1.0   0.22
S      3 -0.1415190000000 -0.2432840000000 -0.2984820000000 1.0   0.22
Fe     4  0.4094160000000 -0.0194010000000  0.3588610000000 1.0   3.48
Fe     4 -0.2488750000000 -0.5194010000000 -0.1411390000000 1.0   3.48
END
