TITL LFSO-Li4Fe2S3O2-200911-061124-661cb2 -0.0598 517.573342 -8.61511704E+003 11.3165 12.2045 22 (Cm) n - 1
REM
REM Run started: Sat, 12 Sep 2020 15:38:13 +0100 in /lustre/scratch/uccabz1/launch_tmp/launcher_2020-09-12-10-40-25-635739
REM CASTEP 20.1 from code version af48c487+ pr-geom-scf-spinfix Tue Jun 2 15:39:59 2020 +0100
REM Functional Perdew Burke Ernzerhof Relativity Koelling-Harmon Dispersion off
REM Cut-off 340.0000 eV Grid scale 1.7500 Gmax 16.5316 1/A FBSC none
REM MP grid 5 2 1 Offset 0.000 0.000 0.000 No. kpts 5 Spacing 0.07
REM Total runtime: 111111 s
REM Overall efficiency: 86.4545 %
REM
REM
REM
REM compiler GCC version 4.9.2
REM options -cpp -iprefix /lustre/shared/ucl/apps/gcc/4.9.2/bin/../lib/gcc/x86_64-unknown-linux-gnu/4.9.2/ -mtune=corei7 -march=x86-64 -g -Og
REM COMMAND_LINE
REM seed -1454795583 1773463869 495929748 -1594135308 -28892614 138984547 30843714 1727893726 -678069181 1754055431 -313382355 57431819
REM
REM S 3|1.8|5|6|7|30:31:32(qc=5)
REM O 2|1.5|12|13|15|20:21(qc=5)
REM Li 1|1.3|8|9|10|10U:20(qc=5)
REM Fe 3|2.2|2.0|1.0|8|9|10|40:41:32(qc=5)
REM 
CELL 1.54180    3.48586    8.72690   18.01083   93.04140  105.40622   78.47945
LATT -1
SFAC Li O  S  Fe 
Li     1 -0.1309240000000  0.3232520000000  0.1069960000000 1.0  -0.10
Li     1  0.1923280000000 -0.3232520000000  0.1069960000000 1.0  -0.10
Li     1 -0.0926150000000 -0.2162350000000 -0.0896530000000 1.0  -0.06
Li     1 -0.3088500000000  0.2162350000000 -0.0896530000000 1.0  -0.06
Li     1  0.1972440000000 -0.2021710000000 -0.3040890000000 1.0  -0.00
Li     1 -0.0049270000000  0.2021710000000 -0.3040890000000 1.0  -0.00
Li     1  0.0504370000000  0.4112620000000 -0.1822100000000 1.0  -0.02
Li     1  0.4616990000000 -0.4112620000000 -0.1822100000000 1.0  -0.02
O      2  0.2147030000000 -0.1834820000000  0.1868820000000 1.0   0.15
O      2  0.0312210000000  0.1834820000000  0.1868820000000 1.0   0.15
O      2 -0.1139270000000 -0.1840020000000  0.3134830000000 1.0   0.52
O      2 -0.2979290000000  0.1840020000000  0.3134830000000 1.0   0.52
S      3 -0.1511490000000 -0.2695570000000 -0.2158830000000 1.0   0.00
S      3 -0.4207060000000  0.2695570000000 -0.2158830000000 1.0   0.00
S      3  0.3525010000000  0.2007680000000 -0.4087600000000 1.0  -0.00
S      3 -0.4467310000000 -0.2007680000000 -0.4087600000000 1.0  -0.00
S      3  0.2417710000000  0.1286590000000  0.4844270000000 1.0  -0.00
S      3  0.3704300000000 -0.1286590000000  0.4844270000000 1.0  -0.00
Fe     4 -0.2494080000000 -0.1589380000000  0.2216690000000 1.0   2.44
Fe     4 -0.4083450000000  0.1589380000000  0.2216690000000 1.0   2.44
Fe     4  0.5934610000000 -0.4209950000000 -0.0087690000000 1.0   2.73
Fe     4  0.1724670000000  0.4209950000000 -0.0087690000000 1.0   2.73
END
