TITL LFSO-Li2Fe4S4O-200911-225010-bb4620 0.0487 206.083819 -5.50371614E+003 -1.61234 1.83385 11 (Amm2) n - 1
REM
REM Run started: Sat, 12 Sep 2020 00:58:29 +0100 in /lustre/scratch/uccabz1/launch_tmp/launcher_2020-09-11-21-50-08-569982
REM CASTEP 20.1 from code version af48c487+ pr-geom-scf-spinfix Tue Jun 2 15:39:59 2020 +0100
REM Functional Perdew Burke Ernzerhof Relativity Koelling-Harmon Dispersion off
REM Cut-off 340.0000 eV Grid scale 1.7500 Gmax 16.5316 1/A FBSC none
REM MP grid 3 3 2 Offset 0.000 0.000 0.000 No. kpts 4 Spacing 0.07
REM Total runtime: 8369.69 s
REM Overall efficiency: 95.25 %
REM
REM
REM
REM compiler GCC version 4.9.2
REM options -cpp -iprefix /lustre/shared/ucl/apps/gcc/4.9.2/bin/../lib/gcc/x86_64-unknown-linux-gnu/4.9.2/ -mtune=corei7 -march=x86-64 -g -Og
REM COMMAND_LINE
REM seed 1247757086 -1671796962 125801797 -1378130922 -2068590469 174977595 -134231305 1640191399 -1326194915 1669072188 -1838334556 -1105223511
REM
REM S 3|1.8|5|6|7|30:31:32(qc=5)
REM O 2|1.5|12|13|15|20:21(qc=5)
REM Li 1|1.3|8|9|10|10U:20(qc=5)
REM Fe 3|2.2|2.0|1.0|8|9|10|40:41:32(qc=5)
REM 
CELL 1.54180    5.16562    5.16562    7.72341   90.00000   90.00000   90.37144
LATT -1
SFAC Li O  S  Fe 
Li     1 -0.2508250000000 -0.1588560000000  0.5000000000000 1.0   0.00
Li     1  0.1588560000000  0.2508250000000 -0.5000000000000 1.0   0.00
O      2  0.0843900000000 -0.0843900000000 -0.5000000000000 1.0  -0.05
S      3 -0.4220610000000 -0.0633460000000  0.2208050000000 1.0   0.02
S      3  0.0633460000000  0.4220610000000 -0.2208050000000 1.0   0.02
S      3  0.0633460000000  0.4220610000000  0.2208050000000 1.0   0.02
S      3 -0.4220610000000 -0.0633460000000 -0.2208050000000 1.0   0.02
Fe     4 -0.0708630000000 -0.2177520000000  0.1353090000000 1.0  -0.42
Fe     4  0.2177520000000  0.0708630000000 -0.1353090000000 1.0  -0.42
Fe     4  0.2177520000000  0.0708630000000  0.1353090000000 1.0  -0.42
Fe     4 -0.0708630000000 -0.2177520000000 -0.1353090000000 1.0  -0.42
END
