TITL LFSO-Li4Fe2S4O-200910-172808-ffad17 -0.0728 425.282218 -8360.476623791 12.9115 13.4466 22 (Cc) n - 1
REM
REM Run started: Sat, 12 Sep 2020 07:48:06 +0100 in /lustre/scratch/uccabz1/launch_tmp/launcher_2020-09-10-16-28-06-979196
REM CASTEP 20.1 from code version af48c487+ pr-geom-scf-spinfix Tue Jun 2 15:39:59 2020 +0100
REM Functional Perdew Burke Ernzerhof Relativity Koelling-Harmon Dispersion off
REM Cut-off 340.0000 eV Grid scale 1.7500 Gmax 16.5316 1/A FBSC none
REM MP grid 4 3 3 Offset 0.000 0.000 0.000 No. kpts 12 Spacing 0.07
REM Total runtime: 137984 s
REM Overall efficiency: 98.8182 %
REM
REM
REM
REM compiler GCC version 4.9.2
REM options -cpp -iprefix /lustre/shared/ucl/apps/gcc/4.9.2/bin/../lib/gcc/x86_64-unknown-linux-gnu/4.9.2/ -mtune=corei7 -march=x86-64 -g -Og
REM COMMAND_LINE
REM seed -1481866740 -733786069 -1592282604 -245907368 -714879709 -822629415 968769246 1299679324 -1868289200 379224811 -1731245610 2056655775
REM
REM S 3|1.8|5|6|7|30:31:32(qc=5)
REM O 2|1.5|12|13|15|20:21(qc=5)
REM Li 1|1.3|8|9|10|10U:20(qc=5)
REM Fe 3|2.2|2.0|1.0|8|9|10|40:41:32(qc=5)
REM 
CELL 1.54180    4.43595   15.94497   15.94497  157.28386   92.43286   92.43286
LATT -1
SFAC Li O  S  Fe 
Li     1 -0.2790830000000  0.1541560000000 -0.5740030000000 1.0  -0.01
Li     1  0.2209170000000 -0.5740030000000  0.1541560000000 1.0  -0.01
Li     1 -0.0927890000000  0.2758550000000 -0.2647080000000 1.0   0.01
Li     1  0.4072110000000 -0.2647080000000  0.2758550000000 1.0   0.01
Li     1  0.0578760000000 -0.4229690000000 -0.2054560000000 1.0   0.01
Li     1 -0.4421240000000 -0.2054560000000 -0.4229690000000 1.0   0.01
Li     1 -0.1544640000000  0.4107520000000  0.3514680000000 1.0  -0.03
Li     1  0.3455360000000  0.3514680000000  0.4107520000000 1.0  -0.03
O      2  0.3620550000000 -0.2865220000000  0.3823970000000 1.0   0.25
O      2 -0.1379450000000  0.3823970000000 -0.2865220000000 1.0   0.25
S      3 -0.1169210000000 -0.2749380000000  0.1928080000000 1.0   0.10
S      3  0.3830790000000  0.1928080000000 -0.2749380000000 1.0   0.10
S      3  0.3522480000000 -0.5390190000000  0.3496870000000 1.0   0.24
S      3 -0.1477520000000  0.3496870000000 -0.5390190000000 1.0   0.24
S      3  0.1038300000000  0.0204600000000 -0.2073780000000 1.0   0.10
S      3 -0.3961700000000 -0.2073780000000  0.0204600000000 1.0   0.10
S      3 -0.2917450000000 -0.0058190000000 -0.0603460000000 1.0  -0.00
S      3  0.2082550000000 -0.0603460000000 -0.0058190000000 1.0  -0.00
Fe     4  0.2285960000000  0.0847380000000 -0.0067270000000 1.0   2.90
Fe     4 -0.2714040000000 -0.0067270000000  0.0847380000000 1.0   2.90
Fe     4  0.2547690000000 -0.0292570000000 -0.3792140000000 1.0   2.77
Fe     4 -0.2452310000000 -0.3792140000000 -0.0292570000000 1.0   2.77
END
