TITL LFSO-Li3Fe3S2O4-200929-005801-ac3bed 0.0072 146.283601 -5.54681414E+003 9.25123 9.59441 12 (P31m) n - 1
REM
REM Run started: Tue, 29 Sep 2020 02:42:04 +0100 in /lustre/scratch/uccabz1/launch_tmp/launcher_2020-09-28-23-57-59-503579
REM CASTEP 20.1 from code version af48c487+ pr-geom-scf-spinfix Tue Jun 2 15:39:59 2020 +0100
REM Functional Perdew Burke Ernzerhof Relativity Koelling-Harmon Dispersion off
REM Cut-off 340.0000 eV Grid scale 1.7500 Gmax 16.5316 1/A FBSC none
REM MP grid 3 4 4 Offset 0.000 0.000 0.000 No. kpts 24 Spacing 0.07
REM Total runtime: 6313.66 s
REM Overall efficiency: 94.1429 %
REM
REM
REM
REM compiler GCC version 4.9.2
REM options -cpp -iprefix /lustre/shared/ucl/apps/gcc/4.9.2/bin/../lib/gcc/x86_64-unknown-linux-gnu/4.9.2/ -mtune=corei7 -march=x86-64 -g -Og
REM COMMAND_LINE
REM seed -1076152669 748278791 466078432 705056184 -2073823765 -1137685624 1776150998 1455192203 737565490 1354189018 440615242 -1160957353
REM
REM S 3|1.8|5|6|7|30:31:32(qc=5)
REM O 2|1.5|12|13|15|20:21(qc=5)
REM Li 1|1.3|8|9|10|10U:20(qc=5)
REM Fe 3|2.2|2.0|1.0|8|9|10|40:41:32(qc=5)
REM 
CELL 1.54180    6.03484    5.29053    5.29053  120.00000   90.00000   90.00000
LATT -1
SFAC Li O  S  Fe 
Li     1  0.0210080000000 -0.3337770000000 -0.0014440000000 1.0   0.01
Li     1  0.0210080000000  0.0014440000000 -0.3323330000000 1.0   0.01
Li     1  0.0210080000000  0.3323330000000  0.3337770000000 1.0   0.01
O      2 -0.2591200000000  0.2645120000000 -0.0689940000000 1.0   0.13
O      2 -0.2591200000000  0.0689940000000  0.3335060000000 1.0   0.13
O      2 -0.2591200000000 -0.3335060000000 -0.2645120000000 1.0   0.13
O      2 -0.0980710000000 -0.3333330000000  0.3333330000000 1.0   0.38
S      3  0.3320700000000  0.0000000000000 -0.0000000000000 1.0   0.01
S      3  0.3321620000000  0.3333330000000 -0.3333330000000 1.0   0.01
Fe     4 -0.3818790000000  0.3897410000000  0.3330160000000 1.0   2.81
Fe     4 -0.3818790000000 -0.3330160000000  0.0567250000000 1.0   2.81
Fe     4 -0.3818790000000 -0.0567250000000 -0.3897410000000 1.0   2.81
END
