TITL LFSO-Li4Fe3S3O2-200927-093430-e253e8 -0.0755 209.790623 -5.17924312E+003 11.5939 11.6832 12 (C2) n - 1
REM
REM Run started: Sun, 27 Sep 2020 12:16:54 +0100 in /lustre/scratch/uccabz1/launch_tmp/launcher_2020-09-27-08-34-27-851574
REM CASTEP 20.1 from code version af48c487+ pr-geom-scf-spinfix Tue Jun 2 15:39:59 2020 +0100
REM Functional Perdew Burke Ernzerhof Relativity Koelling-Harmon Dispersion off
REM Cut-off 340.0000 eV Grid scale 1.7500 Gmax 16.5316 1/A FBSC none
REM MP grid 4 2 2 Offset 0.000 0.000 0.000 No. kpts 6 Spacing 0.07
REM Total runtime: 11350.9 s
REM Overall efficiency: 97.1111 %
REM
REM
REM
REM compiler GCC version 4.9.2
REM options -cpp -iprefix /lustre/shared/ucl/apps/gcc/4.9.2/bin/../lib/gcc/x86_64-unknown-linux-gnu/4.9.2/ -mtune=corei7 -march=x86-64 -g -Og
REM COMMAND_LINE
REM seed 899974968 -999632555 83192946 591230378 -509140041 -1753251514 -475552872 878661201 800166730 -44035273 1237721171 677495517
REM
REM S 3|1.8|5|6|7|30:31:32(qc=5)
REM O 2|1.5|12|13|15|20:21(qc=5)
REM Li 1|1.3|8|9|10|10U:20(qc=5)
REM Fe 3|2.2|2.0|1.0|8|9|10|40:41:32(qc=5)
REM 
CELL 1.54180    3.78448    7.70303    7.70303  107.08606   82.77908   82.77908
LATT -1
SFAC Li O  S  Fe 
Li     1 -0.3839280000000 -0.6095570000000  0.1296990000000 1.0   0.08
Li     1  0.3839280000000 -0.1296990000000  0.6095570000000 1.0   0.08
Li     1  0.2068110000000  0.0820960000000  0.0775430000000 1.0  -0.03
Li     1 -0.2068110000000 -0.0775430000000 -0.0820960000000 1.0  -0.03
O      2 -0.3229930000000  0.1457040000000  0.1222340000000 1.0   0.27
O      2  0.3229930000000 -0.1222340000000 -0.1457040000000 1.0   0.27
S      3  0.0934080000000  0.0861660000000 -0.5116850000000 1.0   0.32
S      3 -0.0934080000000  0.5116850000000 -0.0861660000000 1.0   0.32
S      3  0.5000000000000  0.5260770000000 -0.5260770000000 1.0   0.27
Fe     4 -0.4006100000000  0.1880040000000  0.3776070000000 1.0   3.48
Fe     4  0.4006100000000 -0.3776070000000 -0.1880040000000 1.0   3.48
Fe     4  0.0000000000000  0.4118350000000 -0.4118350000000 1.0   3.08
END
