TITL LFSO-Li2FeSO-200912-014445-b21f4a -0.0745 478.224419 -8.01715647E+003 -14.3340 14.6104 20 (Pm) n - 1
REM
REM Run started: Sun, 13 Sep 2020 15:01:49 +0100 in /lustre/scratch/uccabz1/launch_tmp/launcher_2020-09-13-13-27-48-695331
REM CASTEP 20.1 from code version af48c487+ pr-geom-scf-spinfix Tue Jun 2 15:39:59 2020 +0100
REM Functional Perdew Burke Ernzerhof Relativity Koelling-Harmon Dispersion off
REM Cut-off 340.0000 eV Grid scale 1.7500 Gmax 16.5316 1/A FBSC none
REM MP grid 5 2 2 Offset 0.000 0.000 0.000 No. kpts 5 Spacing 0.07
REM Total runtime: 98220.4 s
REM Overall efficiency: 79.8571 %
REM
REM
REM
REM compiler GCC version 4.9.2
REM options -cpp -iprefix /lustre/shared/ucl/apps/gcc/4.9.2/bin/../lib/gcc/x86_64-unknown-linux-gnu/4.9.2/ -mtune=corei7 -march=x86-64 -g -Og
REM COMMAND_LINE
REM seed -1616166633 696640358 655298746 -173838307 -1029052380 1922088680 -1411363254 1443810741 -1335897994 -440106643 353773808 1471848886
REM
REM S 3|1.8|5|6|7|30:31:32(qc=5)
REM O 2|1.5|12|13|15|20:21(qc=5)
REM Li 1|1.3|8|9|10|10U:20(qc=5)
REM Fe 3|2.2|2.0|1.0|8|9|10|40:41:32(qc=5)
REM 
CELL 1.54180    3.36415   12.22160   11.63133   90.00000   90.00000   89.89320
LATT -1
SFAC Li O  S  Fe 
Li     1 -0.2542230000000  0.2832800000000  0.2629970000000 1.0   0.00
Li     1 -0.2542230000000  0.2832800000000 -0.2629970000000 1.0   0.00
Li     1  0.3001230000000 -0.2140560000000 -0.2645910000000 1.0  -0.04
Li     1  0.3001230000000 -0.2140560000000  0.2645910000000 1.0  -0.04
Li     1 -0.1997230000000 -0.2780310000000  0.1238810000000 1.0  -0.01
Li     1 -0.1997230000000 -0.2780310000000 -0.1238810000000 1.0  -0.01
Li     1 -0.1988690000000 -0.4372730000000 -0.2036380000000 1.0   0.00
Li     1 -0.1988690000000 -0.4372730000000  0.2036380000000 1.0   0.00
O      2 -0.2615990000000  0.4117400000000 -0.1650400000000 1.0  -0.24
O      2 -0.2615990000000  0.4117400000000  0.1650400000000 1.0  -0.24
O      2  0.2820100000000 -0.3408170000000 -0.1851470000000 1.0  -0.02
O      2  0.2820100000000 -0.3408170000000  0.1851470000000 1.0  -0.02
S      3  0.2372030000000  0.1894700000000  0.1733310000000 1.0  -0.23
S      3  0.2372030000000  0.1894700000000 -0.1733310000000 1.0  -0.23
S      3 -0.2494940000000 -0.0883500000000  0.1791150000000 1.0  -0.17
S      3 -0.2494940000000 -0.0883500000000 -0.1791150000000 1.0  -0.17
Fe     4  0.2389620000000  0.3682890000000  0.1042230000000 1.0  -3.28
Fe     4  0.2389620000000  0.3682890000000 -0.1042230000000 1.0  -3.28
Fe     4  0.2453170000000  0.0155540000000 -0.1103470000000 1.0  -3.19
Fe     4  0.2453170000000  0.0155540000000  0.1103470000000 1.0  -3.19
END
