TITL LFSO-LiFe3S3O2-200909-150736-80c7c9 0.0389 158.523551 -4.57786954E+003 7.03142 7.36775 9 (C2) n - 1
REM
REM Run started: Wed, 09 Sep 2020 18:03:52 +0100 in /lustre/scratch/uccabz1/launch_tmp/launcher_2020-09-09-14-07-34-614546
REM CASTEP 20.1 from code version af48c487+ pr-geom-scf-spinfix Tue Jun 2 15:39:59 2020 +0100
REM Functional Perdew Burke Ernzerhof Relativity Koelling-Harmon Dispersion off
REM Cut-off 340.0000 eV Grid scale 1.7500 Gmax 16.5316 1/A FBSC none
REM MP grid 4 3 3 Offset 0.000 0.000 0.000 No. kpts 12 Spacing 0.07
REM Total runtime: 10770.2 s
REM Overall efficiency: 96.2857 %
REM
REM
REM
REM compiler GCC version 4.9.2
REM options -cpp -iprefix /lustre/shared/ucl/apps/gcc/4.9.2/bin/../lib/gcc/x86_64-unknown-linux-gnu/4.9.2/ -mtune=corei7 -march=x86-64 -g -Og
REM COMMAND_LINE
REM seed -1297052938 -598197 -450142097 470554269 1881216048 -1297093628 -179794891 1056173859 -61726644 843025720 -1679084372 100504666
REM
REM S 3|1.8|5|6|7|30:31:32(qc=5)
REM O 2|1.5|12|13|15|20:21(qc=5)
REM Li 1|1.3|8|9|10|10U:20(qc=5)
REM Fe 3|2.2|2.0|1.0|8|9|10|40:41:32(qc=5)
REM 
CELL 1.54180    5.77217    6.24592    6.24592   95.80101  118.27633  118.27633
LATT -1
SFAC Li O  S  Fe 
Li     1  0.5000000000000 -0.4123360000000  0.4123360000000 1.0  -0.00
O      2 -0.3126760000000 -0.0854580000000 -0.3203020000000 1.0   0.27
O      2  0.3126760000000  0.3203020000000  0.0854580000000 1.0   0.27
S      3 -0.8307390000000  0.0379310000000 -0.5632870000000 1.0  -0.01
S      3  0.8307390000000  0.5632870000000 -0.0379310000000 1.0  -0.01
S      3 -0.0000000000000 -0.5703730000000  0.5703730000000 1.0   0.13
Fe     4  0.3069000000000  0.3170590000000 -0.2131910000000 1.0   1.99
Fe     4 -0.3069000000000  0.2131910000000 -0.3170590000000 1.0   1.99
Fe     4 -0.0000000000000 -0.0134350000000  0.0134350000000 1.0   2.41
END
