TITL LFSO-Li4Fe3S4O-200926-064437-54d03f 0.0316 284.996480 -5.04176127E+003 8.01621 8.36729 12 (Cm) n - 1
REM
REM Run started: Sat, 26 Sep 2020 18:49:31 +0100 in /lustre/scratch/uccabz1/launch_tmp/launcher_2020-09-26-05-44-35-343096
REM CASTEP 20.1 from code version af48c487+ pr-geom-scf-spinfix Tue Jun 2 15:39:59 2020 +0100
REM Functional Perdew Burke Ernzerhof Relativity Koelling-Harmon Dispersion off
REM Cut-off 340.0000 eV Grid scale 1.7500 Gmax 16.5316 1/A FBSC none
REM MP grid 3 4 3 Offset 0.000 0.000 0.000 No. kpts 18 Spacing 0.07
REM Total runtime: 44333.9 s
REM Overall efficiency: 83 %
REM
REM
REM
REM compiler GCC version 4.9.2
REM options -cpp -iprefix /lustre/shared/ucl/apps/gcc/4.9.2/bin/../lib/gcc/x86_64-unknown-linux-gnu/4.9.2/ -mtune=corei7 -march=x86-64 -g -Og
REM COMMAND_LINE
REM seed -2025734527 -1802828326 -2136616924 -1153135969 1135770848 2080126227 -1505088714 2110291957 1033312180 -104913560 -1908885917 -947590981
REM
REM S 3|1.8|5|6|7|30:31:32(qc=5)
REM O 2|1.5|12|13|15|20:21(qc=5)
REM Li 1|1.3|8|9|10|10U:20(qc=5)
REM Fe 3|2.2|2.0|1.0|8|9|10|40:41:32(qc=5)
REM 
CELL 1.54180    7.60098    6.86291    8.20531  120.00002   90.00000  123.62620
LATT -1
SFAC Li O  S  Fe 
Li     1  0.3776080000000  0.1044680000000  0.1993430000000 1.0  -0.00
Li     1 -0.2731390000000  0.1044680000000  0.1993430000000 1.0  -0.00
Li     1 -0.1197100000000  0.4172880000000 -0.4084830000000 1.0   0.01
Li     1  0.5369970000000  0.4172880000000 -0.4084830000000 1.0   0.01
O      2 -0.4250220000000  0.1499550000000 -0.6056870000000 1.0   0.24
S      3 -0.4076050000000 -0.3658910000000 -0.0637500000000 1.0   0.06
S      3  0.0417140000000 -0.3658910000000 -0.0637500000000 1.0   0.06
S      3  0.5554470000000  0.6186940000000  0.4050460000000 1.0   0.14
S      3  0.0632480000000  0.6186940000000  0.4050460000000 1.0   0.14
Fe     4 -0.3221590000000 -0.3833450000000  0.1671470000000 1.0   1.90
Fe     4 -0.0611860000000 -0.3833450000000  0.1671470000000 1.0   1.90
Fe     4  0.3987960000000 -0.2024080000000  0.3580260000000 1.0   3.56
END
