TITL LFSO-Li3Fe3S5O-201001-232014-989ead -0.0609 184.587940 -5.14626906E+003 -0.467614E-02 0.146596E-01 12 (Cm) n - 1
REM
REM Run started: Fri, 02 Oct 2020 01:58:08 +0100 in /lustre/scratch/uccabz1/launch_tmp/launcher_2020-10-01-22-20-13-321374
REM CASTEP 20.1 from code version af48c487+ pr-geom-scf-spinfix Tue Jun 2 15:39:59 2020 +0100
REM Functional Perdew Burke Ernzerhof Relativity Koelling-Harmon Dispersion off
REM Cut-off 340.0000 eV Grid scale 1.7500 Gmax 16.5316 1/A FBSC none
REM MP grid 4 4 2 Offset 0.000 0.000 0.000 No. kpts 10 Spacing 0.07
REM Total runtime: 9607.1 s
REM Overall efficiency: 71.8 %
REM
REM
REM
REM compiler GCC version 4.9.2
REM options -cpp -iprefix /lustre/shared/ucl/apps/gcc/4.9.2/bin/../lib/gcc/x86_64-unknown-linux-gnu/4.9.2/ -mtune=corei7 -march=x86-64 -g -Og
REM COMMAND_LINE
REM seed -1015323857 388602886 -1464927020 2044789815 -2114063368 1375830767 -1672816334 665440678 -1984701800 518969288 1172150490 -247993023
REM
REM S 3|1.8|5|6|7|30:31:32(qc=5)
REM O 2|1.5|12|13|15|20:21(qc=5)
REM Li 1|1.3|8|9|10|10U:20(qc=5)
REM Fe 3|2.2|2.0|1.0|8|9|10|40:41:32(qc=5)
REM 
CELL 1.54180    3.93908    3.93908   13.65310  110.86745  110.86745   85.92586
LATT -1
SFAC Li O  S  Fe 
Li     1 -0.4185430000000  0.0804360000000 -0.2284030000000 1.0   0.00
Li     1  0.0804360000000 -0.4185430000000 -0.2284030000000 1.0   0.00
Li     1  0.3348710000000  0.3348710000000  0.3149680000000 1.0   0.00
O      2  0.0524260000000  0.0524260000000 -0.2527450000000 1.0   0.00
S      3 -0.2338620000000  0.3328630000000 -0.0105410000000 1.0   0.00
S      3  0.3328630000000 -0.2338620000000 -0.0105410000000 1.0   0.00
S      3 -0.2790380000000  0.2879760000000 -0.4872960000000 1.0   0.00
S      3  0.2879760000000 -0.2790380000000 -0.4872960000000 1.0   0.00
S      3 -0.1576750000000 -0.1576750000000  0.2303100000000 1.0   0.00
Fe     4 -0.3243130000000  0.2156550000000  0.1189540000000 1.0   0.00
Fe     4  0.2156550000000 -0.3243130000000  0.1189540000000 1.0   0.00
Fe     4 -0.1158390000000 -0.1158390000000 -0.4144050000000 1.0  -0.01
END
