TITL LFSO-LiFe3S2O3-200909-161946-733175 -0.0362 244.086923 -9.42096156E+003 14.0545 14.5957 18 (Pnc2) n - 1
REM
REM Run started: Wed, 09 Sep 2020 18:18:49 +0100 in /lustre/scratch/uccabz1/launch_tmp/launcher_2020-09-09-15-19-44-927517
REM CASTEP 20.1 from code version af48c487+ pr-geom-scf-spinfix Tue Jun 2 15:39:59 2020 +0100
REM Functional Perdew Burke Ernzerhof Relativity Koelling-Harmon Dispersion off
REM Cut-off 340.0000 eV Grid scale 1.7500 Gmax 16.5316 1/A FBSC none
REM MP grid 4 2 2 Offset 0.000 0.000 0.000 No. kpts 2 Spacing 0.07
REM Total runtime: 7184.22 s
REM Overall efficiency: 86.375 %
REM
REM
REM
REM compiler GCC version 4.9.2
REM options -cpp -iprefix /lustre/shared/ucl/apps/gcc/4.9.2/bin/../lib/gcc/x86_64-unknown-linux-gnu/4.9.2/ -mtune=corei7 -march=x86-64 -g -Og
REM COMMAND_LINE
REM seed -929636070 1234740788 1647991896 1689481124 26948861 1277495977 -973800632 -781849828 -513477959 -121160103 -432729673 -1900687201
REM
REM S 3|1.8|5|6|7|30:31:32(qc=5)
REM O 2|1.5|12|13|15|20:21(qc=5)
REM Li 1|1.3|8|9|10|10U:20(qc=5)
REM Fe 3|2.2|2.0|1.0|8|9|10|40:41:32(qc=5)
REM 
CELL 1.54180    3.57447    8.66567    7.88008   90.00000   90.00000   90.00000
LATT -1
SFAC Li O  S  Fe 
Li     1 -0.0000000000000  0.3633320000000 -0.0000000000000 1.0  -0.01
Li     1 -0.0000000000000 -0.1366680000000 -0.5000000000000 1.0  -0.01
O      2 -0.2192440000000  0.1490210000000 -0.1092780000000 1.0   0.20
O      2  0.2192440000000  0.1490210000000  0.1092780000000 1.0   0.20
O      2 -0.2192440000000 -0.3509790000000 -0.3907220000000 1.0   0.20
O      2  0.2192440000000 -0.3509790000000  0.3907220000000 1.0   0.20
O      2 -0.0000000000000  0.1149030000000 -0.5000000000000 1.0   0.25
O      2 -0.0000000000000 -0.3850970000000 -0.0000000000000 1.0   0.25
S      3 -0.4241760000000 -0.0891170000000  0.2807460000000 1.0   0.05
S      3  0.4241760000000 -0.0891170000000 -0.2807460000000 1.0   0.05
S      3 -0.4241760000000  0.4108830000000  0.2192540000000 1.0   0.05
S      3  0.4241760000000  0.4108830000000 -0.2192540000000 1.0   0.05
Fe     4 -0.2814440000000  0.1339260000000  0.1586130000000 1.0   2.54
Fe     4  0.2814440000000  0.1339260000000 -0.1586130000000 1.0   2.54
Fe     4 -0.2814440000000 -0.3660740000000  0.3413870000000 1.0   2.54
Fe     4  0.2814440000000 -0.3660740000000 -0.3413870000000 1.0   2.54
Fe     4 -0.5000000000000  0.0706300000000 -0.5000000000000 1.0   1.23
Fe     4 -0.5000000000000 -0.4293700000000 -0.0000000000000 1.0   1.23
END
