TITL LFSO-Li4Fe3S2O3-201001-035537-b027ce 0.0209 197.917030 -5.30569743E+003 10.1687 10.7793 12 (P3) n - 1
REM
REM Run started: Thu, 01 Oct 2020 12:00:12 +0100 in /lustre/scratch/uccabz1/launch_tmp/launcher_2020-10-01-02-55-36-031482
REM CASTEP 20.1 from code version af48c487+ pr-geom-scf-spinfix Tue Jun 2 15:39:59 2020 +0100
REM Functional Perdew Burke Ernzerhof Relativity Koelling-Harmon Dispersion off
REM Cut-off 340.0000 eV Grid scale 1.7500 Gmax 16.5316 1/A FBSC none
REM MP grid 4 4 2 Offset 0.000 0.000 0.000 No. kpts 16 Spacing 0.07
REM Total runtime: 16905.2 s
REM Overall efficiency: 96.5385 %
REM
REM
REM
REM compiler GCC version 4.9.2
REM options -cpp -iprefix /lustre/shared/ucl/apps/gcc/4.9.2/bin/../lib/gcc/x86_64-unknown-linux-gnu/4.9.2/ -mtune=corei7 -march=x86-64 -g -Og
REM COMMAND_LINE
REM seed 1201422814 429814795 847963552 1148120749 783779138 1135306867 -167654878 1758006535 1460934115 1080898613 -1462412121 -1175970105
REM
REM S 3|1.8|5|6|7|30:31:32(qc=5)
REM O 2|1.5|12|13|15|20:21(qc=5)
REM Li 1|1.3|8|9|10|10U:20(qc=5)
REM Fe 3|2.2|2.0|1.0|8|9|10|40:41:32(qc=5)
REM 
CELL 1.54180    4.68011    4.68011   10.43374   90.00000   90.00000  120.00000
LATT -1
SFAC Li O  S  Fe 
Li     1  0.3333330000000 -0.3333330000000  0.4153360000000 1.0  -0.10
Li     1  0.3333330000000 -0.3333330000000  0.1613100000000 1.0  -0.09
Li     1 -0.3333330000000  0.3333330000000 -0.6240160000000 1.0  -0.05
Li     1 -0.0000000000000  0.0000000000000  0.2571570000000 1.0   0.04
O      2 -0.3978180000000 -0.0276330000000  0.2879050000000 1.0   0.90
O      2  0.0276330000000 -0.3701860000000  0.2879050000000 1.0   0.90
O      2  0.3701860000000  0.3978180000000  0.2879050000000 1.0   0.90
S      3 -0.0000000000000  0.0000000000000 -0.0825540000000 1.0   0.04
S      3 -0.0000000000000  0.0000000000000 -0.3999550000000 1.0   0.04
Fe     4 -0.3396610000000 -0.0312190000000 -0.2405000000000 1.0   2.53
Fe     4  0.0312190000000 -0.3084420000000 -0.2405000000000 1.0   2.53
Fe     4  0.3084420000000  0.3396610000000 -0.2405000000000 1.0   2.53
END
