TITL LFSO-LiFe3SO4-200909-005240-a2d8fd 0.0552 150.760643 -4.84529465E+003 9.15500 9.33625 9 (P4mm) n - 1
REM
REM Run started: Wed, 09 Sep 2020 01:42:13 +0100 in /lustre/scratch/uccabz1/launch_tmp/launcher_2020-09-08-23-52-38-518876
REM CASTEP 20.1 from code version af48c487+ pr-geom-scf-spinfix Tue Jun 2 15:39:59 2020 +0100
REM Functional Perdew Burke Ernzerhof Relativity Koelling-Harmon Dispersion off
REM Cut-off 340.0000 eV Grid scale 1.7500 Gmax 16.5316 1/A FBSC none
REM MP grid 3 3 3 Offset 0.000 0.000 0.000 No. kpts 6 Spacing 0.07
REM Total runtime: 3408.61 s
REM Overall efficiency: 93.5 %
REM
REM
REM
REM compiler GCC version 4.9.2
REM options -cpp -iprefix /lustre/shared/ucl/apps/gcc/4.9.2/bin/../lib/gcc/x86_64-unknown-linux-gnu/4.9.2/ -mtune=corei7 -march=x86-64 -g -Og
REM COMMAND_LINE
REM seed 990274046 -1710660750 -461061458 -975104977 234498431 670512299 820547786 237726777 892384006 1915586954 -1190642016 1562470744
REM
REM S 3|1.8|5|6|7|30:31:32(qc=5)
REM O 2|1.5|12|13|15|20:21(qc=5)
REM Li 1|1.3|8|9|10|10U:20(qc=5)
REM Fe 3|2.2|2.0|1.0|8|9|10|40:41:32(qc=5)
REM 
CELL 1.54180    5.25639    5.35550    5.35550   90.00000   90.00000   90.00000
LATT -1
SFAC Li O  S  Fe 
Li     1 -0.0876840000000  0.0000000000000  0.0000000000000 1.0  -0.01
O      2  0.0341300000000 -0.2530800000000 -0.2530800000000 1.0   0.16
O      2  0.0341300000000  0.2530800000000  0.2530800000000 1.0   0.16
O      2  0.0341300000000 -0.2530800000000  0.2530800000000 1.0   0.16
O      2  0.0341300000000  0.2530800000000 -0.2530800000000 1.0   0.16
S      3  0.5667300000000 -0.5000000000000 -0.5000000000000 1.0   0.66
Fe     4  0.0782160000000  0.5000000000000  0.0000000000000 1.0   3.18
Fe     4  0.0782160000000  0.0000000000000 -0.5000000000000 1.0   3.18
Fe     4 -0.0411430000000  0.5000000000000  0.5000000000000 1.0   1.51
END
