TITL LFSO-LiFeSO-200921-175609-2f47aa 0.1129 429.279258 -3.61038443E+003 6.00000 6.46146 8 (Pm) n - 1
REM
REM Run started: Mon, 21 Sep 2020 21:14:47 +0100 in /lustre/scratch/uccabz1/launch_tmp/launcher_2020-09-21-16-56-07-697418
REM CASTEP 20.1 from code version af48c487+ pr-geom-scf-spinfix Tue Jun 2 15:39:59 2020 +0100
REM Functional Perdew Burke Ernzerhof Relativity Koelling-Harmon Dispersion off
REM Cut-off 340.0000 eV Grid scale 1.7500 Gmax 16.5316 1/A FBSC none
REM MP grid 5 1 3 Offset 0.000 0.000 0.000 No. kpts 8 Spacing 0.07
REM Total runtime: 14779.6 s
REM Overall efficiency: 95.4167 %
REM
REM
REM
REM compiler GCC version 4.9.2
REM options -cpp -iprefix /lustre/shared/ucl/apps/gcc/4.9.2/bin/../lib/gcc/x86_64-unknown-linux-gnu/4.9.2/ -mtune=corei7 -march=x86-64 -g -Og
REM COMMAND_LINE
REM seed -285704555 -905380747 -413458176 -1410441264 -1718217096 379332060 1817522194 -562214795 -833169206 -113884101 1068530515 -911089331
REM
REM S 3|1.8|5|6|7|30:31:32(qc=5)
REM O 2|1.5|12|13|15|20:21(qc=5)
REM Li 1|1.3|8|9|10|10U:20(qc=5)
REM Fe 3|2.2|2.0|1.0|8|9|10|40:41:32(qc=5)
REM 
CELL 1.54180    2.98015   24.84002    5.95790   90.00000  103.26432   90.00000
LATT -1
SFAC Li O  S  Fe 
Li     1  0.5358750000000 -0.2498990000000  0.2970930000000 1.0  -0.00
Li     1  0.5358750000000  0.2498990000000  0.2970930000000 1.0  -0.00
O      2 -0.2618770000000  0.2412650000000 -0.3954310000000 1.0   0.23
O      2 -0.2618770000000 -0.2412650000000 -0.3954310000000 1.0   0.23
S      3 -0.0714000000000 -0.2948810000000  0.0303570000000 1.0   0.03
S      3 -0.0714000000000  0.2948810000000  0.0303570000000 1.0   0.03
Fe     4  0.3184780000000  0.2601500000000 -0.2156970000000 1.0   2.74
Fe     4  0.3184780000000 -0.2601500000000 -0.2156970000000 1.0   2.74
END
