TITL LFSO-Li4Fe3S4O-200926-040002-616f6d 0.1923 294.465207 -5.03893463E+003 9.32738 9.75802 12 (Pmm2) n - 1
REM
REM Run started: Sat, 26 Sep 2020 21:25:05 +0100 in /lustre/scratch/uccabz1/launch_tmp/launcher_2020-09-26-03-00-00-492847
REM CASTEP 20.1 from code version af48c487+ pr-geom-scf-spinfix Tue Jun 2 15:39:59 2020 +0100
REM Functional Perdew Burke Ernzerhof Relativity Koelling-Harmon Dispersion off
REM Cut-off 340.0000 eV Grid scale 1.7500 Gmax 16.5316 1/A FBSC none
REM MP grid 6 1 2 Offset 0.000 0.000 0.000 No. kpts 3 Spacing 0.07
REM Total runtime: 68419 s
REM Overall efficiency: 97.8333 %
REM
REM
REM
REM compiler GCC version 4.9.2
REM options -cpp -iprefix /lustre/shared/ucl/apps/gcc/4.9.2/bin/../lib/gcc/x86_64-unknown-linux-gnu/4.9.2/ -mtune=corei7 -march=x86-64 -g -Og
REM COMMAND_LINE
REM seed -1111580937 -2134055292 305531313 -158530366 -857064533 -649298722 -1211777422 -664049024 763239809 -379730829 1439138855 -1320809947
REM
REM S 3|1.8|5|6|7|30:31:32(qc=5)
REM O 2|1.5|12|13|15|20:21(qc=5)
REM Li 1|1.3|8|9|10|10U:20(qc=5)
REM Fe 3|2.2|2.0|1.0|8|9|10|40:41:32(qc=5)
REM 
CELL 1.54180    2.95112   14.16788    7.04275   90.00000   90.00000   90.00000
LATT -1
SFAC Li O  S  Fe 
Li     1  0.0014410000000  0.0850560000000  0.3408340000000 1.0  -0.01
Li     1  0.0014410000000 -0.0850560000000 -0.3408340000000 1.0  -0.01
Li     1  0.0014410000000  0.0850560000000 -0.3408340000000 1.0  -0.01
Li     1  0.0014410000000 -0.0850560000000  0.3408340000000 1.0  -0.01
O      2 -0.5087780000000  0.0000000000000 -0.5000000000000 1.0   0.02
S      3 -0.4445280000000 -0.2205550000000  0.2358860000000 1.0   0.20
S      3 -0.4445280000000  0.2205550000000 -0.2358860000000 1.0   0.20
S      3 -0.4445280000000 -0.2205550000000 -0.2358860000000 1.0   0.20
S      3 -0.4445280000000  0.2205550000000  0.2358860000000 1.0   0.20
Fe     4  0.0620330000000  0.2246070000000  0.0000000000000 1.0   2.50
Fe     4  0.0620330000000 -0.2246070000000  0.0000000000000 1.0   2.50
Fe     4 -0.1306700000000 -0.5000000000000  0.5000000000000 1.0   3.54
END
