TITL LFSO-Li4Fe3SO4-200930-154551-d9501c -0.8900 178.838790 -5.44449570E+003 7.99332 8.33220 12 (I222) n - 1
REM
REM Run started: Wed, 30 Sep 2020 20:16:18 +0100 in /lustre/scratch/uccabz1/launch_tmp/launcher_2020-09-30-14-45-49-939859
REM CASTEP 20.1 from code version af48c487+ pr-geom-scf-spinfix Tue Jun 2 15:39:59 2020 +0100
REM Functional Perdew Burke Ernzerhof Relativity Koelling-Harmon Dispersion off
REM Cut-off 340.0000 eV Grid scale 1.7500 Gmax 16.5316 1/A FBSC none
REM MP grid 4 3 3 Offset 0.000 0.000 0.000 No. kpts 12 Spacing 0.07
REM Total runtime: 17688 s
REM Overall efficiency: 95.5 %
REM
REM
REM
REM compiler GCC version 4.9.2
REM options -cpp -iprefix /lustre/shared/ucl/apps/gcc/4.9.2/bin/../lib/gcc/x86_64-unknown-linux-gnu/4.9.2/ -mtune=corei7 -march=x86-64 -g -Og
REM COMMAND_LINE
REM seed -1897484012 1660704095 221875374 613339745 -1874395334 -1973407036 -2029004484 -958534348 222483025 -2050955527 605337590 1318104896
REM
REM S 3|1.8|5|6|7|30:31:32(qc=5)
REM O 2|1.5|12|13|15|20:21(qc=5)
REM Li 1|1.3|8|9|10|10U:20(qc=5)
REM Fe 3|2.2|2.0|1.0|8|9|10|40:41:32(qc=5)
REM 
CELL 1.54180    4.74636    6.79418    6.79418   63.55000   69.55575   69.55575
LATT -1
SFAC Li O  S  Fe 
Li     1 -0.2590680000000 -0.4514570000000  0.0921210000000 1.0  -0.01
Li     1  0.3815960000000  0.4514570000000 -0.0921210000000 1.0  -0.01
Li     1  0.2590680000000 -0.0921210000000  0.4514570000000 1.0  -0.01
Li     1 -0.3815960000000  0.0921210000000 -0.4514570000000 1.0  -0.01
O      2 -0.1758190000000  0.3981520000000 -0.1005190000000 1.0   0.15
O      2  0.1218140000000 -0.3981520000000  0.1005190000000 1.0   0.15
O      2  0.1758190000000  0.1005190000000 -0.3981520000000 1.0   0.15
O      2 -0.1218140000000 -0.1005190000000  0.3981520000000 1.0   0.15
S      3 -0.5000000000000 -0.5000000000000  0.5000000000000 1.0   0.27
Fe     4  0.0000000000000 -0.1408390000000  0.1408390000000 1.0   1.79
Fe     4  0.0000000000000  0.1408390000000 -0.1408390000000 1.0   1.79
Fe     4  0.0000000000000  0.5000000000000 -0.5000000000000 1.0   3.57
END
