TITL LFSO-Li3FeS2O-200911-171531-fd4ccb -0.0431 118.386806 -2.50932075E+003 3.72007 3.88893 7 (Cm) n - 1
REM
REM Run started: Fri, 11 Sep 2020 18:59:04 +0100 in /lustre/scratch/uccabz1/launch_tmp/launcher_2020-09-11-16-15-29-578441
REM CASTEP 20.1 from code version af48c487+ pr-geom-scf-spinfix Tue Jun 2 15:39:59 2020 +0100
REM Functional Perdew Burke Ernzerhof Relativity Koelling-Harmon Dispersion off
REM Cut-off 340.0000 eV Grid scale 1.7500 Gmax 16.5316 1/A FBSC none
REM MP grid 4 5 5 Offset 0.000 0.000 0.000 No. kpts 30 Spacing 0.07
REM Total runtime: 6262.25 s
REM Overall efficiency: 92.5455 %
REM
REM
REM
REM compiler GCC version 4.9.2
REM options -cpp -iprefix /lustre/shared/ucl/apps/gcc/4.9.2/bin/../lib/gcc/x86_64-unknown-linux-gnu/4.9.2/ -mtune=corei7 -march=x86-64 -g -Og
REM COMMAND_LINE
REM seed -1199465771 -1758009484 -1130812765 -1046136829 -1881891796 -963672439 -12269164 1667662557 1544818326 1130776655 -1646053407 -1658814416
REM
REM S 3|1.8|5|6|7|30:31:32(qc=5)
REM O 2|1.5|12|13|15|20:21(qc=5)
REM Li 1|1.3|8|9|10|10U:20(qc=5)
REM Fe 3|2.2|2.0|1.0|8|9|10|40:41:32(qc=5)
REM 
CELL 1.54180    5.93991    6.22154    6.22154  122.63062  112.32275  112.32275
LATT -1
SFAC Li O  S  Fe 
Li     1  0.4973710000000  0.3369850000000 -0.3348240000000 1.0   0.05
Li     1  0.4973710000000 -0.3348240000000  0.3369850000000 1.0   0.05
Li     1 -0.0222680000000  0.0403100000000  0.0403100000000 1.0  -0.04
O      2  0.4198230000000  0.5947080000000  0.5947080000000 1.0   0.21
S      3  0.1404610000000  0.0307960000000 -0.2836290000000 1.0   0.14
S      3  0.1404610000000 -0.2836290000000  0.0307960000000 1.0   0.14
Fe     4  0.2598420000000 -0.2437650000000 -0.2437650000000 1.0   3.17
END
