TITL LFSO-LiFeSO-200909-061515-24932e 0.0557 373.225005 -1.08320317E+004 -17.6171 18.2094 24 (P32) n - 1
REM
REM Run started: Wed, 09 Sep 2020 17:16:47 +0100 in /lustre/scratch/uccabz1/launch_tmp/launcher_2020-09-09-05-15-13-310476
REM CASTEP 20.1 from code version af48c487+ pr-geom-scf-spinfix Tue Jun 2 15:39:59 2020 +0100
REM Functional Perdew Burke Ernzerhof Relativity Koelling-Harmon Dispersion off
REM Cut-off 340.0000 eV Grid scale 1.7500 Gmax 16.5316 1/A FBSC none
REM MP grid 3 3 2 Offset 0.000 0.000 0.000 No. kpts 5 Spacing 0.07
REM Total runtime: 39854 s
REM Overall efficiency: 74.7778 %
REM
REM
REM
REM compiler GCC version 4.9.2
REM options -cpp -iprefix /lustre/shared/ucl/apps/gcc/4.9.2/bin/../lib/gcc/x86_64-unknown-linux-gnu/4.9.2/ -mtune=corei7 -march=x86-64 -g -Og
REM COMMAND_LINE
REM seed 444348100 -349712364 1745052254 82019699 -168637743 1199675952 2078062789 -813597856 -1599393833 -34717059 1199717592 -979086948
REM
REM S 3|1.8|5|6|7|30:31:32(qc=5)
REM O 2|1.5|12|13|15|20:21(qc=5)
REM Li 1|1.3|8|9|10|10U:20(qc=5)
REM Fe 3|2.2|2.0|1.0|8|9|10|40:41:32(qc=5)
REM 
CELL 1.54180    6.55774    6.55774   10.02148   90.00000   90.00000  120.00000
LATT -1
SFAC Li O  S  Fe 
Li     1  0.3349350000000  0.4432040000000  0.3794260000000 1.0   0.02
Li     1  0.1082690000000 -0.3349350000000 -0.2872400000000 1.0   0.02
Li     1 -0.4432040000000 -0.1082690000000  0.0460930000000 1.0   0.02
Li     1 -0.1953730000000 -0.5266530000000  0.3223860000000 1.0  -0.00
Li     1 -0.3312800000000  0.1953730000000 -0.3442800000000 1.0  -0.00
Li     1  0.5266530000000  0.3312800000000 -0.0109470000000 1.0  -0.00
O      2  0.3668550000000  0.0156290000000 -0.0020350000000 1.0  -0.39
O      2 -0.3512260000000 -0.3668550000000  0.3312980000000 1.0  -0.39
O      2 -0.0156290000000  0.3512260000000 -0.3353690000000 1.0  -0.39
O      2 -0.3198930000000  0.1663840000000  0.3749180000000 1.0  -0.23
O      2  0.4862760000000  0.3198930000000 -0.2917490000000 1.0  -0.23
O      2 -0.1663840000000 -0.4862760000000  0.0415840000000 1.0  -0.23
S      3 -0.0681810000000 -0.1154610000000 -0.1737270000000 1.0  -0.02
S      3 -0.0472790000000  0.0681810000000  0.1596060000000 1.0  -0.02
S      3  0.1154610000000  0.0472790000000  0.4929400000000 1.0  -0.02
S      3  0.2097910000000 -0.2852890000000  0.2424090000000 1.0  -0.14
S      3  0.5049200000000 -0.2097910000000 -0.4242580000000 1.0  -0.14
S      3  0.2852890000000 -0.5049200000000 -0.0909250000000 1.0  -0.14
Fe     4  0.0558420000000  0.4336760000000  0.0847450000000 1.0  -2.60
Fe     4 -0.6221650000000 -0.0558420000000  0.4180790000000 1.0  -2.60
Fe     4 -0.4336760000000  0.6221650000000 -0.2485880000000 1.0  -2.60
Fe     4 -0.2520500000000 -0.0785870000000  0.3764960000000 1.0  -2.51
Fe     4  0.1734630000000  0.2520500000000 -0.2901710000000 1.0  -2.51
Fe     4  0.0785870000000 -0.1734630000000  0.0431630000000 1.0  -2.51
END
