TITL LFSO-Li5FeS3O-200910-092942-2a5326 0.1105 438.996900 -6.42733732E+003 9.99541 10.0986 20 (P21/m) n - 1
REM
REM Run started: Fri, 11 Sep 2020 02:00:39 +0100 in /lustre/scratch/uccabz1/launch_tmp/launcher_2020-09-10-08-29-41-162733
REM CASTEP 20.1 from code version af48c487+ pr-geom-scf-spinfix Tue Jun 2 15:39:59 2020 +0100
REM Functional Perdew Burke Ernzerhof Relativity Koelling-Harmon Dispersion off
REM Cut-off 340.0000 eV Grid scale 1.7500 Gmax 16.5316 1/A FBSC none
REM MP grid 2 4 3 Offset 0.000 0.000 0.000 No. kpts 6 Spacing 0.07
REM Total runtime: 68863.9 s
REM Overall efficiency: 81.6667 %
REM
REM
REM
REM compiler GCC version 4.9.2
REM options -cpp -iprefix /lustre/shared/ucl/apps/gcc/4.9.2/bin/../lib/gcc/x86_64-unknown-linux-gnu/4.9.2/ -mtune=corei7 -march=x86-64 -g -Og
REM COMMAND_LINE
REM seed -1834302489 150768710 131679773 -1556212369 608737817 218978922 -570708222 1013327445 605360854 -2052329528 334122717 818770847
REM
REM S 3|1.8|5|6|7|30:31:32(qc=5)
REM O 2|1.5|12|13|15|20:21(qc=5)
REM Li 1|1.3|8|9|10|10U:20(qc=5)
REM Fe 3|2.2|2.0|1.0|8|9|10|40:41:32(qc=5)
REM 
CELL 1.54180    6.95784   11.72923   17.00322  161.55684   90.00000   90.00000
LATT -1
SFAC Li O  S  Fe 
Li     1 -0.5149960000000  0.1642850000000  0.4664130000000 1.0  -0.00
Li     1 -0.0149960000000 -0.1642850000000 -0.4664130000000 1.0  -0.00
Li     1  0.5149960000000 -0.1642850000000 -0.4664130000000 1.0  -0.00
Li     1  0.0149960000000  0.1642850000000  0.4664130000000 1.0  -0.00
Li     1 -0.4240130000000  0.4229700000000 -0.1477320000000 1.0  -0.01
Li     1  0.0759870000000 -0.4229700000000  0.1477320000000 1.0  -0.01
Li     1  0.4240130000000 -0.4229700000000  0.1477320000000 1.0  -0.01
Li     1 -0.0759870000000  0.4229700000000 -0.1477320000000 1.0  -0.01
Li     1 -0.2500000000000 -0.0159800000000 -0.0114370000000 1.0   0.08
Li     1  0.2500000000000  0.0159800000000  0.0114370000000 1.0   0.08
O      2  0.2500000000000 -0.0300390000000  0.3898470000000 1.0   0.29
O      2 -0.2500000000000  0.0300390000000 -0.3898470000000 1.0   0.29
S      3  0.5029620000000 -0.2990190000000 -0.1025670000000 1.0   0.39
S      3  0.0029620000000  0.2990190000000  0.1025670000000 1.0   0.39
S      3 -0.5029620000000  0.2990190000000  0.1025670000000 1.0   0.39
S      3 -0.0029620000000 -0.2990190000000 -0.1025670000000 1.0   0.39
S      3 -0.2500000000000 -0.2688400000000  0.2018610000000 1.0   0.16
S      3  0.2500000000000  0.2688400000000 -0.2018610000000 1.0   0.16
Fe     4 -0.2500000000000  0.6271300000000  0.2770480000000 1.0   3.73
Fe     4  0.2500000000000 -0.6271300000000 -0.2770480000000 1.0   3.73
END
