TITL LFSO-Li3Fe3S2O4-200929-162135-d6ea26 0.0437 206.137818 -5.54948807E+003 3.09409 10.4894 12 (P2) n - 1
REM
REM Run started: Tue, 29 Sep 2020 19:52:52 +0100 in /lustre/scratch/uccabz1/launch_tmp/launcher_2020-09-29-15-21-34-069294
REM CASTEP 20.1 from code version af48c487+ pr-geom-scf-spinfix Tue Jun 2 15:39:59 2020 +0100
REM Functional Perdew Burke Ernzerhof Relativity Koelling-Harmon Dispersion off
REM Cut-off 340.0000 eV Grid scale 1.7500 Gmax 16.5316 1/A FBSC none
REM MP grid 3 3 3 Offset 0.000 0.000 0.000 No. kpts 10 Spacing 0.07
REM Total runtime: 12781.4 s
REM Overall efficiency: 79.8889 %
REM
REM
REM
REM compiler GCC version 4.9.2
REM options -cpp -iprefix /lustre/shared/ucl/apps/gcc/4.9.2/bin/../lib/gcc/x86_64-unknown-linux-gnu/4.9.2/ -mtune=corei7 -march=x86-64 -g -Og
REM COMMAND_LINE
REM seed -1810211030 837523789 2073223237 -967846245 79460931 25496879 374534237 -426875080 1295430370 1980877710 -958440422 1871066414
REM
REM S 3|1.8|5|6|7|30:31:32(qc=5)
REM O 2|1.5|12|13|15|20:21(qc=5)
REM Li 1|1.3|8|9|10|10U:20(qc=5)
REM Fe 3|2.2|2.0|1.0|8|9|10|40:41:32(qc=5)
REM 
CELL 1.54180    5.80233    5.74973    6.18787   90.00000   90.00000   93.09337
LATT -1
SFAC Li O  S  Fe 
Li     1 -0.2008020000000 -0.1046410000000 -0.1196290000000 1.0   0.03
Li     1  0.2008020000000  0.1046410000000 -0.1196290000000 1.0   0.03
Li     1 -0.5000000000000 -0.5000000000000 -0.4838700000000 1.0   0.04
O      2 -0.1022740000000  0.2152640000000 -0.1996490000000 1.0   0.40
O      2  0.1022740000000 -0.2152640000000 -0.1996490000000 1.0   0.40
O      2 -0.3253370000000 -0.2277840000000  0.6068160000000 1.0  -0.01
O      2  0.3253370000000  0.2277840000000  0.6068160000000 1.0  -0.01
S      3  0.2350120000000 -0.2375630000000  0.3004540000000 1.0  -0.04
S      3 -0.2350120000000  0.2375630000000  0.3004540000000 1.0  -0.04
Fe     4 -0.0215570000000 -0.2821650000000 -0.4449360000000 1.0   2.84
Fe     4  0.0215570000000  0.2821650000000 -0.4449360000000 1.0   2.84
Fe     4  0.5000000000000  0.0000000000000 -0.5221430000000 1.0  -3.40
END
