TITL LFSO-Li2Fe3S3O-200912-182046-037637 -0.1985 265.356465 -8.67927165E+003 -18.1504 18.5361 18 (P3) n - 1
REM
REM Run started: Sun, 13 Sep 2020 08:40:46 +0100 in /lustre/scratch/uccabz1/launch_tmp/launcher_2020-09-12-17-20-44-687151
REM CASTEP 20.1 from code version af48c487+ pr-geom-scf-spinfix Tue Jun 2 15:39:59 2020 +0100
REM Functional Perdew Burke Ernzerhof Relativity Koelling-Harmon Dispersion off
REM Cut-off 340.0000 eV Grid scale 1.7500 Gmax 16.5316 1/A FBSC none
REM MP grid 3 3 3 Offset 0.000 0.000 0.000 No. kpts 8 Spacing 0.07
REM Total runtime: 55819.3 s
REM Overall efficiency: 92.5833 %
REM
REM
REM
REM compiler GCC version 4.9.2
REM options -cpp -iprefix /lustre/shared/ucl/apps/gcc/4.9.2/bin/../lib/gcc/x86_64-unknown-linux-gnu/4.9.2/ -mtune=corei7 -march=x86-64 -g -Og
REM COMMAND_LINE
REM seed 1508626735 201288184 2051364516 -546284018 -940923698 -1766663405 772079485 -1872616463 148427891 1827814673 1291832494 -1917107352
REM
REM S 3|1.8|5|6|7|30:31:32(qc=5)
REM O 2|1.5|12|13|15|20:21(qc=5)
REM Li 1|1.3|8|9|10|10U:20(qc=5)
REM Fe 3|2.2|2.0|1.0|8|9|10|40:41:32(qc=5)
REM 
CELL 1.54180    6.81708    6.81708    6.59329   90.00000   90.00000  120.00000
LATT -1
SFAC Li O  S  Fe 
Li     1  0.1004440000000 -0.3269120000000 -0.0757820000000 1.0   0.03
Li     1  0.3269120000000  0.4273560000000 -0.0757820000000 1.0   0.03
Li     1 -0.4273560000000 -0.1004440000000 -0.0757820000000 1.0   0.03
Li     1 -0.0000000000000  0.0000000000000 -0.0860370000000 1.0   0.02
O      2  0.3333330000000 -0.3333330000000 -0.3135540000000 1.0  -0.08
O      2 -0.0000000000000  0.0000000000000 -0.4105640000000 1.0  -0.18
S      3 -0.0822840000000  0.2814830000000 -0.1078320000000 1.0  -0.17
S      3 -0.2814830000000 -0.3637660000000 -0.1078320000000 1.0  -0.17
S      3  0.3637660000000  0.0822840000000 -0.1078320000000 1.0  -0.17
S      3  0.0457010000000 -0.3126060000000  0.3104510000000 1.0  -0.16
S      3  0.3126060000000  0.3583070000000  0.3104510000000 1.0  -0.16
S      3 -0.3583070000000 -0.0457010000000  0.3104510000000 1.0  -0.16
Fe     4 -0.3276720000000 -0.2192460000000 -0.4149040000000 1.0  -2.82
Fe     4  0.2192460000000 -0.1084260000000 -0.4149040000000 1.0  -2.82
Fe     4  0.1084260000000  0.3276720000000 -0.4149040000000 1.0  -2.82
Fe     4 -0.1119370000000  0.3162590000000  0.2440300000000 1.0  -2.86
Fe     4 -0.3162590000000 -0.4281960000000  0.2440300000000 1.0  -2.86
Fe     4  0.4281960000000  0.1119370000000  0.2440300000000 1.0  -2.86
END
