TITL LFSO-Li6FeSO3-200909-230250-009cc0 0.1197 391.763684 -7.35534077E+003 6.28049 6.78487 22 (P2) n - 1
REM
REM Run started: Thu, 10 Sep 2020 16:29:16 +0100 in /lustre/scratch/uccabz1/launch_tmp/launcher_2020-09-09-22-02-48-644879
REM CASTEP 20.1 from code version af48c487+ pr-geom-scf-spinfix Tue Jun 2 15:39:59 2020 +0100
REM Functional Perdew Burke Ernzerhof Relativity Koelling-Harmon Dispersion off
REM Cut-off 340.0000 eV Grid scale 1.7500 Gmax 16.5316 1/A FBSC none
REM MP grid 5 3 1 Offset 0.000 0.000 0.000 No. kpts 8 Spacing 0.07
REM Total runtime: 68366.8 s
REM Overall efficiency: 98.25 %
REM
REM
REM
REM compiler GCC version 4.9.2
REM options -cpp -iprefix /lustre/shared/ucl/apps/gcc/4.9.2/bin/../lib/gcc/x86_64-unknown-linux-gnu/4.9.2/ -mtune=corei7 -march=x86-64 -g -Og
REM COMMAND_LINE
REM seed -1188270047 681728080 481974690 634211938 997669869 932418375 1054832151 -278273756 1732822181 -2126122396 1787969548 204423497
REM
REM S 3|1.8|5|6|7|30:31:32(qc=5)
REM O 2|1.5|12|13|15|20:21(qc=5)
REM Li 1|1.3|8|9|10|10U:20(qc=5)
REM Fe 3|2.2|2.0|1.0|8|9|10|40:41:32(qc=5)
REM 
CELL 1.54180    3.55354    5.39170   20.61696   90.00000   90.00000   82.64649
LATT -1
SFAC Li O  S  Fe 
Li     1 -0.2193230000000  0.3735860000000 -0.4061010000000 1.0  -0.00
Li     1  0.2193230000000 -0.3735860000000 -0.4061010000000 1.0  -0.00
Li     1 -0.2466160000000 -0.3599310000000  0.1017430000000 1.0  -0.06
Li     1  0.2466160000000  0.3599310000000  0.1017430000000 1.0  -0.06
Li     1 -0.3304920000000 -0.3106120000000  0.4926460000000 1.0   0.00
Li     1  0.3304920000000  0.3106120000000  0.4926460000000 1.0   0.00
Li     1  0.5000000000000 -0.5000000000000  0.0052420000000 1.0   0.00
Li     1  0.0000000000000 -0.5000000000000  0.3877790000000 1.0   0.01
Li     1  0.0000000000000  0.0000000000000  0.2898100000000 1.0  -0.09
Li     1  0.5000000000000  0.0000000000000 -0.3957270000000 1.0   0.00
Li     1  0.0000000000000  0.0000000000000 -0.1510730000000 1.0  -0.00
Li     1  0.0000000000000  0.0000000000000  0.0316510000000 1.0   0.02
O      2 -0.2903380000000 -0.2861600000000 -0.4211890000000 1.0   0.00
O      2  0.2903380000000  0.2861600000000 -0.4211890000000 1.0   0.00
O      2 -0.2340640000000  0.2779090000000  0.0841630000000 1.0   0.14
O      2  0.2340640000000 -0.2779090000000  0.0841630000000 1.0   0.14
O      2  0.5000000000000  0.0000000000000 -0.1363470000000 1.0   0.00
O      2 -0.5000000000000  0.5000000000000  0.4256830000000 1.0   0.01
S      3  0.5000000000000  0.0000000000000 -0.0533540000000 1.0   0.01
S      3 -0.5000000000000  0.5000000000000  0.2380770000000 1.0   0.15
Fe     4 -0.2723850000000  0.1660020000000  0.1736460000000 1.0   3.00
Fe     4  0.2723850000000 -0.1660020000000  0.1736460000000 1.0   3.00
END
