TITL LFSO-Li2Fe4S2O3-200912-073714-51648e 0.1173 335.375339 -1.15422922E+004 0.136712 22.9373 22 (P3) n - 1
REM
REM Run started: Sun, 13 Sep 2020 00:02:14 +0100 in /lustre/scratch/uccabz1/launch_tmp/launcher_2020-09-12-10-57-39-641770
REM CASTEP 20.1 from code version af48c487+ pr-geom-scf-spinfix Tue Jun 2 15:39:59 2020 +0100
REM Functional Perdew Burke Ernzerhof Relativity Koelling-Harmon Dispersion off
REM Cut-off 340.0000 eV Grid scale 1.7500 Gmax 16.5316 1/A FBSC none
REM MP grid 3 3 2 Offset 0.000 0.000 0.000 No. kpts 5 Spacing 0.07
REM Total runtime: 49809.3 s
REM Overall efficiency: 77 %
REM
REM
REM
REM compiler GCC version 4.9.2
REM options -cpp -iprefix /lustre/shared/ucl/apps/gcc/4.9.2/bin/../lib/gcc/x86_64-unknown-linux-gnu/4.9.2/ -mtune=corei7 -march=x86-64 -g -Og
REM COMMAND_LINE
REM seed 1628380418 -567422973 -1817964287 -754045099 896533244 1281855081 -524844532 -434912940 1393406317 -2133307557 1128855481 -241269665
REM
REM S 3|1.8|5|6|7|30:31:32(qc=5)
REM O 2|1.5|12|13|15|20:21(qc=5)
REM Li 1|1.3|8|9|10|10U:20(qc=5)
REM Fe 3|2.2|2.0|1.0|8|9|10|40:41:32(qc=5)
REM 
CELL 1.54180    6.52746    6.52746    9.08892   90.00000   90.00000  120.00000
LATT -1
SFAC Li O  S  Fe 
Li     1  0.0712190000000 -0.1955350000000  0.0698890000000 1.0   0.01
Li     1 -0.2667550000000 -0.0712190000000  0.0698890000000 1.0   0.01
Li     1  0.1955350000000  0.2667550000000  0.0698890000000 1.0   0.01
Li     1  0.3333330000000 -0.3333330000000  0.1277440000000 1.0  -0.23
O      2 -0.0078170000000  0.5232560000000 -0.4860970000000 1.0   0.11
O      2 -0.4689260000000  0.0078170000000 -0.4860970000000 1.0   0.11
O      2 -0.5232560000000  0.4689260000000 -0.4860970000000 1.0   0.11
O      2 -0.0440040000000  0.2256780000000  0.2078730000000 1.0   0.03
O      2  0.2696810000000  0.0440040000000  0.2078730000000 1.0   0.03
O      2 -0.2256780000000 -0.2696810000000  0.2078730000000 1.0   0.03
S      3 -0.4324930000000  0.5803660000000 -0.1083370000000 1.0  -0.01
S      3  0.0128580000000  0.4324930000000 -0.1083370000000 1.0  -0.01
S      3 -0.5803660000000 -0.0128580000000 -0.1083370000000 1.0  -0.01
S      3  0.3333330000000 -0.3333330000000 -0.2140220000000 1.0  -0.02
Fe     4  0.0011870000000 -0.2125810000000 -0.4324280000000 1.0  -2.77
Fe     4 -0.2137680000000 -0.0011870000000 -0.4324280000000 1.0  -2.77
Fe     4  0.2125810000000  0.2137680000000 -0.4324280000000 1.0  -2.77
Fe     4 -0.4280430000000 -0.3419180000000  0.3624000000000 1.0   2.86
Fe     4  0.0861250000000  0.4280430000000  0.3624000000000 1.0   2.86
Fe     4  0.3419180000000 -0.0861250000000  0.3624000000000 1.0   2.86
Fe     4 -0.0000000000000  0.0000000000000 -0.2065390000000 1.0   2.74
Fe     4 -0.0000000000000  0.0000000000000  0.3260350000000 1.0  -3.06
END
