TITL LFSO-Li4Fe2SO4-200910-134048-cbeafd 0.0209 141.534191 -4.57797354E+003 -7.74720 7.86598 11 (R3) n - 1
REM
REM Run started: Thu, 10 Sep 2020 15:39:09 +0100 in /lustre/scratch/uccabz1/launch_tmp/launcher_2020-09-10-12-40-47-089936
REM CASTEP 20.1 from code version af48c487+ pr-geom-scf-spinfix Tue Jun 2 15:39:59 2020 +0100
REM Functional Perdew Burke Ernzerhof Relativity Koelling-Harmon Dispersion off
REM Cut-off 340.0000 eV Grid scale 1.7500 Gmax 16.5316 1/A FBSC none
REM MP grid 4 4 2 Offset 0.000 0.000 0.000 No. kpts 16 Spacing 0.07
REM Total runtime: 8535.28 s
REM Overall efficiency: 96.5 %
REM
REM
REM
REM compiler GCC version 4.9.2
REM options -cpp -iprefix /lustre/shared/ucl/apps/gcc/4.9.2/bin/../lib/gcc/x86_64-unknown-linux-gnu/4.9.2/ -mtune=corei7 -march=x86-64 -g -Og
REM COMMAND_LINE
REM seed 52840425 -2004450781 1981141196 -2046038497 -1970517674 -1373782795 -1604692014 -139266323 -21517511 -1200444704 135498997 -452358189
REM
REM S 3|1.8|5|6|7|30:31:32(qc=5)
REM O 2|1.5|12|13|15|20:21(qc=5)
REM Li 1|1.3|8|9|10|10U:20(qc=5)
REM Fe 3|2.2|2.0|1.0|8|9|10|40:41:32(qc=5)
REM 
CELL 1.54180    4.79509    4.79509    7.62794   71.68081   71.68081   60.00000
LATT -1
SFAC Li O  S  Fe 
Li     1 -0.6200290000000 -0.2142500000000 -0.2071060000000 1.0   0.01
Li     1 -0.2142500000000  0.0413860000000 -0.2071060000000 1.0   0.01
Li     1  0.0413860000000 -0.6200290000000 -0.2071060000000 1.0   0.01
Li     1  0.1649140000000  0.1649140000000  0.5052580000000 1.0   0.10
O      2 -0.5400070000000  0.1354340000000 -0.3699630000000 1.0  -0.27
O      2  0.1354340000000 -0.2254640000000 -0.3699630000000 1.0  -0.27
O      2 -0.2254640000000 -0.5400070000000 -0.3699630000000 1.0  -0.27
O      2  0.0074330000000  0.0074330000000 -0.0222980000000 1.0  -0.28
S      3 -0.3953530000000 -0.3953530000000  0.1860600000000 1.0  -0.18
Fe     4  0.2932280000000  0.2932280000000  0.1203170000000 1.0  -3.68
Fe     4  0.4964000000000  0.4964000000000 -0.4891990000000 1.0  -2.92
END
