TITL LFSO-Li6FeSO3-200909-205949-11f4f7 -0.0327 434.481769 -7.35910097E+003 7.19941 7.67173 22 (Ccc2) n - 1
REM
REM Run started: Thu, 10 Sep 2020 13:48:31 +0100 in /lustre/scratch/uccabz1/launch_tmp/launcher_2020-09-10-11-35-05-141893
REM CASTEP 20.1 from code version af48c487+ pr-geom-scf-spinfix Tue Jun 2 15:39:59 2020 +0100
REM Functional Perdew Burke Ernzerhof Relativity Koelling-Harmon Dispersion off
REM Cut-off 340.0000 eV Grid scale 1.7500 Gmax 16.5316 1/A FBSC none
REM MP grid 5 5 1 Offset 0.000 0.000 0.000 No. kpts 9 Spacing 0.07
REM Total runtime: 60016.4 s
REM Overall efficiency: 98 %
REM
REM
REM
REM compiler GCC version 4.9.2
REM options -cpp -iprefix /lustre/shared/ucl/apps/gcc/4.9.2/bin/../lib/gcc/x86_64-unknown-linux-gnu/4.9.2/ -mtune=corei7 -march=x86-64 -g -Og
REM COMMAND_LINE
REM seed -1558157928 -1118567436 -1428879230 841778837 -1660866333 1016335811 1663780966 -892551708 -1326172060 1048111049 -942302239 1783272885
REM
REM S 3|1.8|5|6|7|30:31:32(qc=5)
REM O 2|1.5|12|13|15|20:21(qc=5)
REM Li 1|1.3|8|9|10|10U:20(qc=5)
REM Fe 3|2.2|2.0|1.0|8|9|10|40:41:32(qc=5)
REM 
CELL 1.54180    7.84550    7.84550   18.13212   90.00000   90.00000  157.08921
LATT -1
SFAC Li O  S  Fe 
Li     1  0.3399190000000 -0.3465230000000  0.0268800000000 1.0  -0.02
Li     1 -0.3399190000000  0.3465230000000  0.0268800000000 1.0  -0.02
Li     1 -0.3465230000000  0.3399190000000 -0.4731200000000 1.0  -0.02
Li     1  0.3465230000000 -0.3399190000000 -0.4731200000000 1.0  -0.02
Li     1 -0.3147510000000 -0.6988300000000  0.2371500000000 1.0  -0.00
Li     1  0.3147510000000  0.6988300000000  0.2371500000000 1.0  -0.00
Li     1 -0.6988300000000 -0.3147510000000 -0.2628500000000 1.0  -0.00
Li     1  0.6988300000000  0.3147510000000 -0.2628500000000 1.0  -0.00
Li     1 -0.1858460000000  0.1587970000000  0.3814550000000 1.0  -0.03
Li     1  0.1858460000000 -0.1587970000000  0.3814550000000 1.0  -0.03
Li     1  0.1587970000000 -0.1858460000000 -0.1185450000000 1.0  -0.03
Li     1 -0.1587970000000  0.1858460000000 -0.1185450000000 1.0  -0.03
O      2  0.1153190000000 -0.1189000000000  0.4738030000000 1.0   0.18
O      2 -0.1153190000000  0.1189000000000  0.4738030000000 1.0   0.18
O      2 -0.1189000000000  0.1153190000000 -0.0261970000000 1.0   0.18
O      2  0.1189000000000 -0.1153190000000 -0.0261970000000 1.0   0.18
O      2  0.5000000000000  0.0000000000000 -0.1835490000000 1.0   0.00
O      2  0.0000000000000 -0.5000000000000  0.3164510000000 1.0   0.00
S      3  0.0000000000000 -0.5000000000000  0.1315270000000 1.0   0.00
S      3  0.5000000000000  0.0000000000000 -0.3684730000000 1.0   0.00
Fe     4  0.0000000000000  0.0000000000000 -0.0307220000000 1.0   3.35
Fe     4  0.0000000000000  0.0000000000000 -0.5307220000000 1.0   3.35
END
