TITL LFSO-Li3FeSO2-200911-170233-bf9142 0.2135 779.184028 -5.28056123E+003 -7.16841 7.78366 14 (P-4) n - 1
REM
REM Run started: Sat, 12 Sep 2020 01:08:03 +0100 in /lustre/scratch/uccabz1/launch_tmp/launcher_2020-09-11-16-02-30-890024
REM CASTEP 20.1 from code version af48c487+ pr-geom-scf-spinfix Tue Jun 2 15:39:59 2020 +0100
REM Functional Perdew Burke Ernzerhof Relativity Koelling-Harmon Dispersion off
REM Cut-off 340.0000 eV Grid scale 1.7500 Gmax 16.5316 1/A FBSC none
REM MP grid 3 3 1 Offset 0.000 0.000 0.000 No. kpts 3 Spacing 0.07
REM Total runtime: 34351.2 s
REM Overall efficiency: 96.5833 %
REM
REM
REM
REM compiler GCC version 4.9.2
REM options -cpp -iprefix /lustre/shared/ucl/apps/gcc/4.9.2/bin/../lib/gcc/x86_64-unknown-linux-gnu/4.9.2/ -mtune=corei7 -march=x86-64 -g -Og
REM COMMAND_LINE
REM seed -2067497371 1666231539 -967837211 -1556790241 -633550563 265129997 -2040372409 -679456024 -1359077889 -107239982 1035801897 -624869894
REM
REM S 3|1.8|5|6|7|30:31:32(qc=5)
REM O 2|1.5|12|13|15|20:21(qc=5)
REM Li 1|1.3|8|9|10|10U:20(qc=5)
REM Fe 3|2.2|2.0|1.0|8|9|10|40:41:32(qc=5)
REM 
CELL 1.54180    5.87592    5.87592   22.56772   90.00000   90.00000   90.00000
LATT -1
SFAC Li O  S  Fe 
Li     1 -0.2275680000000  0.1790060000000 -0.2106840000000 1.0  -0.01
Li     1  0.2275680000000 -0.1790060000000 -0.2106840000000 1.0  -0.01
Li     1 -0.1790060000000 -0.2275680000000  0.2106840000000 1.0  -0.01
Li     1  0.1790060000000  0.2275680000000  0.2106840000000 1.0  -0.01
Li     1  0.5000000000000  0.0000000000000 -0.3154150000000 1.0   0.02
Li     1  0.0000000000000 -0.5000000000000  0.3154150000000 1.0   0.02
O      2 -0.2249480000000 -0.4383630000000  0.2669050000000 1.0  -0.26
O      2  0.2249480000000  0.4383630000000  0.2669050000000 1.0  -0.26
O      2  0.4383630000000 -0.2249480000000 -0.2669050000000 1.0  -0.26
O      2 -0.4383630000000  0.2249480000000 -0.2669050000000 1.0  -0.26
S      3  0.0000000000000  0.5000000000000 -0.2042640000000 1.0   0.12
S      3  0.5000000000000  0.0000000000000  0.2042640000000 1.0   0.12
Fe     4  0.5000000000000 -0.5000000000000  0.2462260000000 1.0  -3.19
Fe     4 -0.5000000000000  0.5000000000000 -0.2462260000000 1.0  -3.19
END
