TITL LFSO-Li2Fe2SO3-200913-082649-cdc299 -0.0259 87.120107 -3.74507633E+003 5.69480 5.79433 8 (C2) n - 1
REM
REM Run started: Sun, 13 Sep 2020 09:08:30 +0100 in /lustre/scratch/uccabz1/launch_tmp/launcher_2020-09-13-07-26-47-158952
REM CASTEP 20.1 from code version af48c487+ pr-geom-scf-spinfix Tue Jun 2 15:39:59 2020 +0100
REM Functional Perdew Burke Ernzerhof Relativity Koelling-Harmon Dispersion off
REM Cut-off 340.0000 eV Grid scale 1.7500 Gmax 16.5316 1/A FBSC none
REM MP grid 4 4 3 Offset 0.000 0.000 0.000 No. kpts 16 Spacing 0.07
REM Total runtime: 2700.79 s
REM Overall efficiency: 92.2857 %
REM
REM
REM
REM compiler GCC version 4.9.2
REM options -cpp -iprefix /lustre/shared/ucl/apps/gcc/4.9.2/bin/../lib/gcc/x86_64-unknown-linux-gnu/4.9.2/ -mtune=corei7 -march=x86-64 -g -Og
REM COMMAND_LINE
REM seed -673568430 1152468757 1422781251 -2044036805 891077921 -1995203651 2033244284 1769910642 -1617190595 -854847533 -1790659139 -665897779
REM
REM S 3|1.8|5|6|7|30:31:32(qc=5)
REM O 2|1.5|12|13|15|20:21(qc=5)
REM Li 1|1.3|8|9|10|10U:20(qc=5)
REM Fe 3|2.2|2.0|1.0|8|9|10|40:41:32(qc=5)
REM 
CELL 1.54180    3.63593    3.63593    6.70289   97.42812   97.42812   88.15013
LATT -1
SFAC Li O  S  Fe 
Li     1 -0.0717590000000 -0.3637220000000 -0.1231250000000 1.0  -0.05
Li     1  0.3637220000000  0.0717590000000  0.1231250000000 1.0  -0.05
O      2  0.4061810000000 -0.3543150000000 -0.2317110000000 1.0   0.22
O      2  0.3543150000000 -0.4061810000000  0.2317110000000 1.0   0.22
O      2 -0.1806160000000  0.1806160000000  0.0000000000000 1.0   0.13
S      3 -0.0859670000000  0.0859670000000 -0.5000000000000 1.0   0.05
Fe     4  0.4687610000000  0.1337700000000 -0.2660930000000 1.0   2.58
Fe     4 -0.1337700000000 -0.4687610000000  0.2660930000000 1.0   2.58
END
