TITL LFSO-Li4Fe3SO4-200927-193747-8e86e8 -0.0234 163.516156 -5.44552233E+003 9.96725 10.2992 12 (P2/m) n - 1
REM
REM Run started: Mon, 28 Sep 2020 16:05:27 +0100 in /scratch/scratch/uccabz1/launch_tmp/launcher_2020-09-28-13-04-09-546297
REM CASTEP 19.11| from code version Version unavailable
REM Functional Perdew Burke Ernzerhof Relativity Koelling-Harmon Dispersion off
REM Cut-off 340.0000 eV Grid scale 1.7500 Gmax 16.5316 1/A FBSC none
REM MP grid 5 3 3 Offset 0.000 0.000 0.000 No. kpts 16 Spacing 0.07
REM Total runtime: 20769.7 s
REM Overall efficiency: 84.75 %
REM
REM
REM
REM compiler GCC version 4.9.2
REM options -cpp -iprefix /lustre/shared/ucl/apps/gcc/4.9.2/bin/../lib/gcc/x86_64-unknown-linux-gnu/4.9.2/ -mtune=corei7 -march=x86-64 -g -Og
REM COMMAND_LINE
REM seed 2072251119 -1942221038 -838772671 1568041179 1281683942 416596468 -1538119933 -413264169 -374660812 2101308817 2117763112 -704716291
REM
REM S 3|1.8|5|6|7|30:31:32(qc=5)
REM O 2|1.5|12|13|15|20:21(qc=5)
REM Li 1|1.3|8|9|10|10U:20(qc=5)
REM Fe 3|2.2|2.0|1.0|8|9|10|40:41:32(qc=5)
REM 
CELL 1.54180    3.55700    7.28430    6.94737   90.00000  114.71721   90.00000
LATT -1
SFAC Li O  S  Fe 
Li     1  0.2352360000000 -0.2781870000000  0.2918170000000 1.0  -0.05
Li     1 -0.2352360000000 -0.2781870000000 -0.2918170000000 1.0  -0.05
Li     1 -0.2352360000000  0.2781870000000 -0.2918170000000 1.0  -0.05
Li     1  0.2352360000000  0.2781870000000  0.2918170000000 1.0  -0.05
O      2  0.2625430000000  0.1852250000000 -0.2970630000000 1.0   0.16
O      2 -0.2625430000000  0.1852250000000  0.2970630000000 1.0   0.16
O      2 -0.2625430000000 -0.1852250000000  0.2970630000000 1.0   0.16
O      2  0.2625430000000 -0.1852250000000 -0.2970630000000 1.0   0.16
S      3  0.0000000000000 -0.5000000000000  0.0000000000000 1.0   0.20
Fe     4 -0.5000000000000  0.1940600000000  0.0000000000000 1.0   3.37
Fe     4  0.5000000000000 -0.1940600000000  0.0000000000000 1.0   3.37
Fe     4  0.0000000000000  0.0000000000000  0.5000000000000 1.0   2.61
END
