TITL LFSO-Li2Fe3S2O2-200921-041007-ffe962 -0.0932 232.056790 -8.94718173E+003 15.9935 16.4908 18 (I4) n - 1
REM
REM Run started: Mon, 21 Sep 2020 07:40:01 +0100 in /lustre/scratch/uccabz1/launch_tmp/launcher_2020-09-21-03-10-05-315762
REM CASTEP 20.1 from code version af48c487+ pr-geom-scf-spinfix Tue Jun 2 15:39:59 2020 +0100
REM Functional Perdew Burke Ernzerhof Relativity Koelling-Harmon Dispersion off
REM Cut-off 340.0000 eV Grid scale 1.7500 Gmax 16.5316 1/A FBSC none
REM MP grid 3 3 3 Offset 0.000 0.000 0.000 No. kpts 6 Spacing 0.07
REM Total runtime: 12718.9 s
REM Overall efficiency: 96.5 %
REM
REM
REM
REM compiler GCC version 4.9.2
REM options -cpp -iprefix /lustre/shared/ucl/apps/gcc/4.9.2/bin/../lib/gcc/x86_64-unknown-linux-gnu/4.9.2/ -mtune=corei7 -march=x86-64 -g -Og
REM COMMAND_LINE
REM seed -1014882098 -1730733385 -1349242426 1436683690 736405985 -434848296 -1932560012 -777114557 -174585310 562462514 -306179619 -2053721084
REM
REM S 3|1.8|5|6|7|30:31:32(qc=5)
REM O 2|1.5|12|13|15|20:21(qc=5)
REM Li 1|1.3|8|9|10|10U:20(qc=5)
REM Fe 3|2.2|2.0|1.0|8|9|10|40:41:32(qc=5)
REM 
CELL 1.54180    6.10200    6.88028    6.88028   78.65945   63.67636   63.67636
LATT -1
SFAC Li O  S  Fe 
Li     1  0.0548550000000 -0.3047800000000 -0.0922670000000 1.0  -0.03
Li     1 -0.3421920000000  0.3047800000000  0.0922670000000 1.0  -0.03
Li     1 -0.2499250000000 -0.0922670000000  0.3047800000000 1.0  -0.03
Li     1 -0.0374120000000  0.0922670000000 -0.3047800000000 1.0  -0.03
O      2  0.2872930000000 -0.1597160000000 -0.2773280000000 1.0   0.12
O      2 -0.1497510000000  0.1597160000000  0.2773280000000 1.0   0.12
O      2  0.1275770000000 -0.2773280000000  0.1597160000000 1.0   0.12
O      2  0.0099650000000  0.2773280000000 -0.1597160000000 1.0   0.12
S      3  0.2850540000000  0.1777680000000  0.3329340000000 1.0   0.04
S      3 -0.2042440000000 -0.1777680000000 -0.3329340000000 1.0   0.04
S      3  0.4628220000000  0.3329340000000 -0.1777680000000 1.0   0.04
S      3 -0.3820120000000 -0.3329340000000  0.1777680000000 1.0   0.04
Fe     4  0.1807810000000 -0.0747490000000  0.2643020000000 1.0   2.30
Fe     4  0.3703330000000  0.0747490000000 -0.2643020000000 1.0   2.30
Fe     4  0.1060310000000  0.2643020000000  0.0747490000000 1.0   2.30
Fe     4 -0.5549180000000 -0.2643020000000 -0.0747490000000 1.0   2.30
Fe     4 -0.4597780000000 -0.5000000000000 -0.5000000000000 1.0   3.14
Fe     4  0.0402220000000 -0.5000000000000 -0.5000000000000 1.0   3.14
END
