TITL LFSO-Li2Fe4S3O2-200912-070156-58d873 0.0280 316.913349 -1.12769422E+004 23.8064 24.3854 22 (P42/m) n - 1
REM
REM Run started: Sat, 12 Sep 2020 21:46:13 +0100 in /lustre/scratch/uccabz1/launch_tmp/launcher_2020-09-12-06-01-53-977075
REM CASTEP 20.1 from code version af48c487+ pr-geom-scf-spinfix Tue Jun 2 15:39:59 2020 +0100
REM Functional Perdew Burke Ernzerhof Relativity Koelling-Harmon Dispersion off
REM Cut-off 340.0000 eV Grid scale 1.7500 Gmax 16.5316 1/A FBSC none
REM MP grid 4 2 2 Offset 0.000 0.000 0.000 No. kpts 2 Spacing 0.07
REM Total runtime: 42900.8 s
REM Overall efficiency: 94.125 %
REM
REM
REM
REM compiler GCC version 4.9.2
REM options -cpp -iprefix /lustre/shared/ucl/apps/gcc/4.9.2/bin/../lib/gcc/x86_64-unknown-linux-gnu/4.9.2/ -mtune=corei7 -march=x86-64 -g -Og
REM COMMAND_LINE
REM seed -1790849621 1668336206 -433931703 -552333649 1604927653 -647768475 -689117151 -1244122786 -1141321715 -1380374650 1848419617 -2127783922
REM
REM S 3|1.8|5|6|7|30:31:32(qc=5)
REM O 2|1.5|12|13|15|20:21(qc=5)
REM Li 1|1.3|8|9|10|10U:20(qc=5)
REM Fe 3|2.2|2.0|1.0|8|9|10|40:41:32(qc=5)
REM 
CELL 1.54180    3.54405    9.45628    9.45628   90.00000   90.00000   90.00000
LATT -1
SFAC Li O  S  Fe 
Li     1  0.0223630000000 -0.1199210000000 -0.0872900000000 1.0  -0.05
Li     1  0.0223630000000  0.1199210000000  0.0872900000000 1.0  -0.05
Li     1 -0.4776370000000 -0.0872900000000  0.1199210000000 1.0  -0.05
Li     1 -0.4776370000000  0.0872900000000 -0.1199210000000 1.0  -0.05
O      2  0.5144890000000  0.4291170000000 -0.3390830000000 1.0   0.39
O      2  0.5144890000000 -0.4291170000000  0.3390830000000 1.0   0.39
O      2  0.0144890000000 -0.3390830000000 -0.4291170000000 1.0   0.39
O      2  0.0144890000000  0.3390830000000  0.4291170000000 1.0   0.39
S      3  0.0205540000000  0.2324630000000 -0.1257490000000 1.0   0.09
S      3  0.0205540000000 -0.2324630000000  0.1257490000000 1.0   0.09
S      3 -0.4794460000000 -0.1257490000000 -0.2324630000000 1.0   0.09
S      3 -0.4794460000000  0.1257490000000  0.2324630000000 1.0   0.09
S      3  0.0165750000000  0.0000000000000  0.5000000000000 1.0   0.06
S      3 -0.4834250000000  0.5000000000000  0.0000000000000 1.0   0.06
Fe     4 -0.4786070000000  0.2930810000000  0.0490380000000 1.0   1.93
Fe     4 -0.4786070000000 -0.2930810000000 -0.0490380000000 1.0   1.93
Fe     4  0.0213930000000  0.0490380000000 -0.2930810000000 1.0   1.93
Fe     4  0.0213930000000 -0.0490380000000  0.2930810000000 1.0   1.93
Fe     4  0.5156690000000  0.3602290000000  0.3463530000000 1.0   3.57
Fe     4  0.5156690000000 -0.3602290000000 -0.3463530000000 1.0   3.57
Fe     4  0.0156690000000  0.3463530000000 -0.3602290000000 1.0   3.57
Fe     4  0.0156690000000 -0.3463530000000  0.3602290000000 1.0   3.57
END
