TITL LFSO-Li2Fe2S3O-200913-045026-d4c321 -0.0585 218.382085 -6.95371580E+003 4.13984 7.60828 16 (P3) n - 1
REM
REM Run started: Sun, 13 Sep 2020 13:27:42 +0100 in /lustre/scratch/uccabz1/launch_tmp/launcher_2020-09-13-03-50-25-205713
REM CASTEP 20.1 from code version af48c487+ pr-geom-scf-spinfix Tue Jun 2 15:39:59 2020 +0100
REM Functional Perdew Burke Ernzerhof Relativity Koelling-Harmon Dispersion off
REM Cut-off 340.0000 eV Grid scale 1.7500 Gmax 16.5316 1/A FBSC none
REM MP grid 3 3 3 Offset 0.000 0.000 0.000 No. kpts 8 Spacing 0.07
REM Total runtime: 31340.6 s
REM Overall efficiency: 95.4444 %
REM
REM
REM
REM compiler GCC version 4.9.2
REM options -cpp -iprefix /lustre/shared/ucl/apps/gcc/4.9.2/bin/../lib/gcc/x86_64-unknown-linux-gnu/4.9.2/ -mtune=corei7 -march=x86-64 -g -Og
REM COMMAND_LINE
REM seed -513626712 -714926831 1141525863 -776862497 -417340247 -1610445608 1586298963 -1034988209 77689228 -1386409931 1943844096 -1423006225
REM
REM S 3|1.8|5|6|7|30:31:32(qc=5)
REM O 2|1.5|12|13|15|20:21(qc=5)
REM Li 1|1.3|8|9|10|10U:20(qc=5)
REM Fe 3|2.2|2.0|1.0|8|9|10|40:41:32(qc=5)
REM 
CELL 1.54180    6.51862    6.51862    5.93437   90.00000   90.00000  120.00000
LATT -1
SFAC Li O  S  Fe 
Li     1  0.4222710000000  0.3114250000000 -0.2024230000000 1.0  -0.01
Li     1 -0.3114250000000  0.1108460000000 -0.2024230000000 1.0  -0.01
Li     1 -0.1108460000000 -0.4222710000000 -0.2024230000000 1.0  -0.01
Li     1  0.3333330000000 -0.3333330000000 -0.0783510000000 1.0   0.02
O      2 -0.3333330000000  0.3333330000000  0.0566730000000 1.0   0.09
O      2 -0.3333330000000  0.3333330000000  0.4780670000000 1.0   0.11
S      3  0.0869460000000 -0.2556610000000  0.1884640000000 1.0  -0.00
S      3  0.2556610000000  0.3426080000000  0.1884640000000 1.0  -0.00
S      3 -0.3426080000000 -0.0869460000000  0.1884640000000 1.0  -0.00
S      3  0.2656560000000 -0.0788640000000 -0.3656910000000 1.0  -0.04
S      3  0.0788640000000  0.3445200000000 -0.3656910000000 1.0  -0.04
S      3 -0.3445200000000 -0.2656560000000 -0.3656910000000 1.0  -0.04
Fe     4 -0.1039910000000  0.3080750000000  0.2984890000000 1.0   1.82
Fe     4 -0.3080750000000 -0.4120660000000  0.2984890000000 1.0   1.82
Fe     4  0.4120660000000  0.1039910000000  0.2984890000000 1.0   1.82
Fe     4  0.3333330000000 -0.3333330000000 -0.5749090000000 1.0  -1.41
END
