TITL LFSO-Li4Fe2S3O-200911-031836-a18fdb 0.0471 204.084168 -3.87457690E+003 -4.01297 4.81534 10 (Cm) n - 1
REM
REM Run started: Fri, 11 Sep 2020 13:14:02 +0100 in /lustre/scratch/uccabz1/launch_tmp/launcher_2020-09-11-02-18-33-991058
REM CASTEP 20.1 from code version af48c487+ pr-geom-scf-spinfix Tue Jun 2 15:39:59 2020 +0100
REM Functional Perdew Burke Ernzerhof Relativity Koelling-Harmon Dispersion off
REM Cut-off 340.0000 eV Grid scale 1.7500 Gmax 16.5316 1/A FBSC none
REM MP grid 4 4 3 Offset 0.000 0.000 0.000 No. kpts 16 Spacing 0.07
REM Total runtime: 42635.8 s
REM Overall efficiency: 89.75 %
REM
REM
REM
REM compiler GCC version 4.9.2
REM options -cpp -iprefix /lustre/shared/ucl/apps/gcc/4.9.2/bin/../lib/gcc/x86_64-unknown-linux-gnu/4.9.2/ -mtune=corei7 -march=x86-64 -g -Og
REM COMMAND_LINE
REM seed -1733170440 525165290 1782476547 1883477188 1824170524 -1578208360 1087749865 -944862701 345921492 -778963095 -1715132741 -697730539
REM
REM S 3|1.8|5|6|7|30:31:32(qc=5)
REM O 2|1.5|12|13|15|20:21(qc=5)
REM Li 1|1.3|8|9|10|10U:20(qc=5)
REM Fe 3|2.2|2.0|1.0|8|9|10|40:41:32(qc=5)
REM 
CELL 1.54180    7.18779    7.18779   12.73807   34.06714   34.06714   50.33196
LATT -1
SFAC Li O  S  Fe 
Li     1 -0.0717090000000 -0.5196030000000  0.2068420000000 1.0  -0.01
Li     1 -0.5196030000000 -0.0717090000000  0.2068420000000 1.0  -0.01
Li     1 -0.3331450000000  0.2220630000000 -0.3602650000000 1.0   0.05
Li     1  0.2220630000000 -0.3331450000000 -0.3602650000000 1.0   0.05
O      2 -0.3208280000000 -0.3208280000000  0.3454160000000 1.0  -0.05
S      3  0.5198640000000 -0.0606920000000 -0.0002920000000 1.0   0.08
S      3 -0.0606920000000  0.5198640000000 -0.0002920000000 1.0   0.08
S      3  0.2510800000000  0.2510800000000  0.2913810000000 1.0   0.01
Fe     4 -0.2424680000000  0.1154840000000  0.1756130000000 1.0  -2.11
Fe     4  0.1154840000000 -0.2424680000000  0.1756130000000 1.0  -2.11
END
