TITL LFSO-Li5FeS3O-200910-100046-9893a3 -0.0927 392.192670 -6.42266292E+003 6.00425 7.65251 20 (Pnc2) n - 1
REM
REM Run started: Thu, 10 Sep 2020 14:14:14 +0100 in /lustre/scratch/uccabz1/launch_tmp/launcher_2020-09-10-09-00-44-319403
REM CASTEP 20.1 from code version af48c487+ pr-geom-scf-spinfix Tue Jun 2 15:39:59 2020 +0100
REM Functional Perdew Burke Ernzerhof Relativity Koelling-Harmon Dispersion off
REM Cut-off 340.0000 eV Grid scale 1.7500 Gmax 16.5316 1/A FBSC none
REM MP grid 2 2 3 Offset 0.000 0.000 0.000 No. kpts 2 Spacing 0.07
REM Total runtime: 16861.6 s
REM Overall efficiency: 84.5 %
REM
REM
REM
REM compiler GCC version 4.9.2
REM options -cpp -iprefix /lustre/shared/ucl/apps/gcc/4.9.2/bin/../lib/gcc/x86_64-unknown-linux-gnu/4.9.2/ -mtune=corei7 -march=x86-64 -g -Og
REM COMMAND_LINE
REM seed 709170249 -1133970279 -1192245338 -1445921251 -1195781080 -276358124 1542872587 -1888147129 890458023 -1433931606 -199477263 -18985354
REM
REM S 3|1.8|5|6|7|30:31:32(qc=5)
REM O 2|1.5|12|13|15|20:21(qc=5)
REM Li 1|1.3|8|9|10|10U:20(qc=5)
REM Fe 3|2.2|2.0|1.0|8|9|10|40:41:32(qc=5)
REM 
CELL 1.54180    7.79305    7.45723    6.74861   90.00000   90.00000   90.00000
LATT -1
SFAC Li O  S  Fe 
Li     1  0.3271330000000 -0.4469070000000  0.4555880000000 1.0  -0.03
Li     1 -0.3271330000000  0.4469070000000  0.4555880000000 1.0  -0.03
Li     1  0.1728670000000 -0.4469070000000 -0.0444120000000 1.0  -0.03
Li     1 -0.1728670000000  0.4469070000000 -0.0444120000000 1.0  -0.03
Li     1  0.0959400000000  0.1777440000000  0.3458000000000 1.0   0.03
Li     1 -0.0959400000000 -0.1777440000000  0.3458000000000 1.0   0.03
Li     1 -0.5959400000000  0.1777440000000 -0.1542000000000 1.0   0.03
Li     1  0.5959400000000 -0.1777440000000 -0.1542000000000 1.0   0.03
Li     1  0.0000000000000  0.0000000000000 -0.0435830000000 1.0   0.06
Li     1  0.5000000000000  0.0000000000000  0.4564170000000 1.0   0.06
O      2  0.0000000000000  0.0000000000000  0.2160160000000 1.0  -0.33
O      2  0.5000000000000  0.0000000000000 -0.2839840000000 1.0  -0.33
S      3 -0.0629480000000 -0.2675830000000 -0.2342950000000 1.0   0.18
S      3  0.0629480000000  0.2675830000000 -0.2342950000000 1.0   0.18
S      3 -0.4370520000000 -0.2675830000000  0.2657050000000 1.0   0.18
S      3  0.4370520000000  0.2675830000000  0.2657050000000 1.0   0.18
S      3 -0.5000000000000  0.5000000000000 -0.2227390000000 1.0   0.14
S      3  0.0000000000000 -0.5000000000000  0.2772610000000 1.0   0.14
Fe     4  0.5000000000000  0.5000000000000  0.0953840000000 1.0   2.78
Fe     4  0.0000000000000  0.5000000000000 -0.4046160000000 1.0   2.78
END
