TITL LFSO-Li2Fe4S2O3-200912-080408-7f6eab 0.0430 330.073475 -1.15507332E+004 17.3712 18.2155 22 (C2221) n - 1
REM
REM Run started: Sun, 13 Sep 2020 10:28:03 +0100 in /lustre/scratch/uccabz1/launch_tmp/launcher_2020-09-12-07-04-06-919706
REM CASTEP 20.1 from code version af48c487+ pr-geom-scf-spinfix Tue Jun 2 15:39:59 2020 +0100
REM Functional Perdew Burke Ernzerhof Relativity Koelling-Harmon Dispersion off
REM Cut-off 340.0000 eV Grid scale 1.7500 Gmax 16.5316 1/A FBSC none
REM MP grid 4 4 1 Offset 0.000 0.000 0.000 No. kpts 6 Spacing 0.07
REM Total runtime: 95224.2 s
REM Overall efficiency: 97.6667 %
REM
REM
REM
REM compiler GCC version 4.9.2
REM options -cpp -iprefix /lustre/shared/ucl/apps/gcc/4.9.2/bin/../lib/gcc/x86_64-unknown-linux-gnu/4.9.2/ -mtune=corei7 -march=x86-64 -g -Og
REM COMMAND_LINE
REM seed -78775974 1839543272 -1000808865 1183876257 1428862883 1774544547 -384148631 770059342 87390523 494605580 362413896 -1578358180
REM
REM S 3|1.8|5|6|7|30:31:32(qc=5)
REM O 2|1.5|12|13|15|20:21(qc=5)
REM Li 1|1.3|8|9|10|10U:20(qc=5)
REM Fe 3|2.2|2.0|1.0|8|9|10|40:41:32(qc=5)
REM 
CELL 1.54180    3.70776    3.70776   24.25855   90.00000   90.00000   98.21223
LATT -1
SFAC Li O  S  Fe 
Li     1 -0.3248760000000 -0.1838780000000  0.1511150000000 1.0  -0.03
Li     1  0.3248760000000  0.1838780000000 -0.3488850000000 1.0  -0.03
Li     1 -0.1838780000000 -0.3248760000000  0.3488850000000 1.0  -0.03
Li     1  0.1838780000000  0.3248760000000 -0.1511150000000 1.0  -0.03
O      2 -0.1717940000000  0.1365260000000  0.3073070000000 1.0   0.09
O      2  0.1717940000000 -0.1365260000000 -0.1926930000000 1.0   0.09
O      2  0.1365260000000 -0.1717940000000  0.1926930000000 1.0   0.09
O      2 -0.1365260000000  0.1717940000000 -0.3073070000000 1.0   0.09
O      2  0.5116890000000  0.5116890000000  0.2500000000000 1.0   0.13
O      2 -0.5116890000000 -0.5116890000000 -0.2500000000000 1.0   0.13
S      3 -0.1733880000000  0.1813370000000 -0.0593000000000 1.0  -0.03
S      3  0.1733880000000 -0.1813370000000  0.4407000000000 1.0  -0.03
S      3  0.1813370000000 -0.1733880000000 -0.4407000000000 1.0  -0.03
S      3 -0.1813370000000  0.1733880000000  0.0593000000000 1.0  -0.03
Fe     4  0.1753430000000  0.3242140000000 -0.4997840000000 1.0   2.10
Fe     4 -0.1753430000000 -0.3242140000000  0.0002160000000 1.0   2.10
Fe     4  0.3242140000000  0.1753430000000 -0.0002160000000 1.0   2.10
Fe     4 -0.3242140000000 -0.1753430000000  0.4997840000000 1.0   2.10
Fe     4 -0.5473290000000  0.0026360000000  0.2540750000000 1.0   2.16
Fe     4  0.5473290000000 -0.0026360000000 -0.2459250000000 1.0   2.16
Fe     4  0.0026360000000 -0.5473290000000  0.2459250000000 1.0   2.16
Fe     4 -0.0026360000000  0.5473290000000 -0.2540750000000 1.0   2.16
END
