TITL LFSO-LiFe3S4O-200909-092658-c94ca0 0.0169 169.139719 -4.44214919E+003 -6.75860 7.05720 9 (Pmm2) n - 1
REM
REM Run started: Wed, 09 Sep 2020 13:17:02 +0100 in /lustre/scratch/uccabz1/launch_tmp/launcher_2020-09-09-08-26-55-909230
REM CASTEP 20.1 from code version af48c487+ pr-geom-scf-spinfix Tue Jun 2 15:39:59 2020 +0100
REM Functional Perdew Burke Ernzerhof Relativity Koelling-Harmon Dispersion off
REM Cut-off 340.0000 eV Grid scale 1.7500 Gmax 16.5316 1/A FBSC none
REM MP grid 5 2 3 Offset 0.000 0.000 0.000 No. kpts 6 Spacing 0.07
REM Total runtime: 13852.1 s
REM Overall efficiency: 94.2 %
REM
REM
REM
REM compiler GCC version 4.9.2
REM options -cpp -iprefix /lustre/shared/ucl/apps/gcc/4.9.2/bin/../lib/gcc/x86_64-unknown-linux-gnu/4.9.2/ -mtune=corei7 -march=x86-64 -g -Og
REM COMMAND_LINE
REM seed 1393759827 1936867719 -2017077073 496876248 -583342546 1652313229 -1123053299 -766501304 -31098108 -1956027166 1699556606 -561378206
REM
REM S 3|1.8|5|6|7|30:31:32(qc=5)
REM O 2|1.5|12|13|15|20:21(qc=5)
REM Li 1|1.3|8|9|10|10U:20(qc=5)
REM Fe 3|2.2|2.0|1.0|8|9|10|40:41:32(qc=5)
REM 
CELL 1.54180    3.35532    7.77387    6.48447   90.00000   90.00000   90.00000
LATT -1
SFAC Li O  S  Fe 
Li     1 -0.0706080000000  0.0000000000000  0.0000000000000 1.0   0.05
O      2  0.4304270000000  0.0000000000000  0.0000000000000 1.0  -0.96
S      3 -0.1929830000000  0.3093570000000  0.2587550000000 1.0  -0.05
S      3 -0.1929830000000 -0.3093570000000 -0.2587550000000 1.0  -0.05
S      3 -0.1929830000000  0.3093570000000 -0.2587550000000 1.0  -0.05
S      3 -0.1929830000000 -0.3093570000000  0.2587550000000 1.0  -0.05
Fe     4  0.3059650000000  0.5000000000000 -0.3128270000000 1.0  -1.75
Fe     4  0.3059650000000  0.5000000000000  0.3128270000000 1.0  -1.75
Fe     4 -0.1939970000000  0.5000000000000  0.0000000000000 1.0  -2.15
END
