TITL LFSO-Li2Fe3S3O-200912-203337-ad7eb4 -0.0659 168.855622 -4.33440081E+003 8.87657 9.19367 9 (P3) n - 1
REM
REM Run started: Sat, 12 Sep 2020 22:28:57 +0100 in /lustre/scratch/uccabz1/launch_tmp/launcher_2020-09-12-19-33-35-419484
REM CASTEP 20.1 from code version af48c487+ pr-geom-scf-spinfix Tue Jun 2 15:39:59 2020 +0100
REM Functional Perdew Burke Ernzerhof Relativity Koelling-Harmon Dispersion off
REM Cut-off 340.0000 eV Grid scale 1.7500 Gmax 16.5316 1/A FBSC none
REM MP grid 4 4 2 Offset 0.000 0.000 0.000 No. kpts 16 Spacing 0.07
REM Total runtime: 7301.61 s
REM Overall efficiency: 96.125 %
REM
REM
REM
REM compiler GCC version 4.9.2
REM options -cpp -iprefix /lustre/shared/ucl/apps/gcc/4.9.2/bin/../lib/gcc/x86_64-unknown-linux-gnu/4.9.2/ -mtune=corei7 -march=x86-64 -g -Og
REM COMMAND_LINE
REM seed 1767242009 2136347954 -1807928509 970582887 -1037720505 2077495537 1510603681 -958472437 -794144912 -1473273296 -1315900780 1804914987
REM
REM S 3|1.8|5|6|7|30:31:32(qc=5)
REM O 2|1.5|12|13|15|20:21(qc=5)
REM Li 1|1.3|8|9|10|10U:20(qc=5)
REM Fe 3|2.2|2.0|1.0|8|9|10|40:41:32(qc=5)
REM 
CELL 1.54180    4.52943    4.52943    9.50381   90.00000   90.00000  120.00000
LATT -1
SFAC Li O  S  Fe 
Li     1 -0.3333330000000  0.3333330000000 -0.1116300000000 1.0  -0.01
Li     1  0.3333330000000 -0.3333330000000  0.4875670000000 1.0  -0.06
O      2 -0.3333330000000  0.3333330000000  0.0835300000000 1.0   0.20
S      3  0.2759790000000 -0.0232360000000 -0.3074800000000 1.0   0.00
S      3 -0.2992160000000 -0.2759790000000 -0.3074800000000 1.0   0.00
S      3  0.0232360000000  0.2992160000000 -0.3074800000000 1.0   0.00
Fe     4 -0.3379050000000 -0.0046150000000  0.2102170000000 1.0   2.91
Fe     4  0.3332910000000  0.3379050000000  0.2102170000000 1.0   2.91
Fe     4  0.0046150000000 -0.3332910000000  0.2102170000000 1.0   2.91
END
