TITL LFSO-Li2Fe2S3O-200913-065657-3e3da6 0.1053 388.244266 -6.94677484E+003 8.02995 12.1884 16 (P3) n - 1
REM
REM Run started: Sun, 13 Sep 2020 17:12:40 +0100 in /lustre/scratch/uccabz1/launch_tmp/launcher_2020-09-13-05-56-55-856228
REM CASTEP 20.1 from code version af48c487+ pr-geom-scf-spinfix Tue Jun 2 15:39:59 2020 +0100
REM Functional Perdew Burke Ernzerhof Relativity Koelling-Harmon Dispersion off
REM Cut-off 340.0000 eV Grid scale 1.7500 Gmax 16.5316 1/A FBSC none
REM MP grid 3 3 2 Offset 0.000 0.000 0.000 No. kpts 5 Spacing 0.07
REM Total runtime: 41549.9 s
REM Overall efficiency: 80.75 %
REM
REM
REM
REM compiler GCC version 4.9.2
REM options -cpp -iprefix /lustre/shared/ucl/apps/gcc/4.9.2/bin/../lib/gcc/x86_64-unknown-linux-gnu/4.9.2/ -mtune=corei7 -march=x86-64 -g -Og
REM COMMAND_LINE
REM seed 678103985 -112760161 1162079738 -829321958 -1243817946 1052730254 2117307881 1967776194 1825759237 1226242881 1109424432 483950736
REM
REM S 3|1.8|5|6|7|30:31:32(qc=5)
REM O 2|1.5|12|13|15|20:21(qc=5)
REM Li 1|1.3|8|9|10|10U:20(qc=5)
REM Fe 3|2.2|2.0|1.0|8|9|10|40:41:32(qc=5)
REM 
CELL 1.54180    5.69072    5.69072   13.84332   90.00000   90.00000  120.00000
LATT -1
SFAC Li O  S  Fe 
Li     1  0.4457960000000  0.4326680000000  0.4051030000000 1.0  -0.01
Li     1 -0.4326680000000  0.0131280000000  0.4051030000000 1.0  -0.01
Li     1 -0.0131280000000 -0.4457960000000  0.4051030000000 1.0  -0.01
Li     1  0.3333330000000 -0.3333330000000  0.2684490000000 1.0   0.01
O      2  0.3333330000000 -0.3333330000000  0.3903720000000 1.0   0.01
O      2 -0.3333330000000  0.3333330000000  0.2818780000000 1.0   0.14
S      3  0.3074670000000  0.3053420000000  0.0681220000000 1.0   0.06
S      3 -0.3053420000000  0.0021260000000  0.0681220000000 1.0   0.06
S      3 -0.0021260000000 -0.3074670000000  0.0681220000000 1.0   0.06
S      3 -0.2281920000000 -0.4088270000000 -0.4412040000000 1.0   0.26
S      3  0.4088270000000  0.1806360000000 -0.4412040000000 1.0   0.26
S      3 -0.1806360000000  0.2281920000000 -0.4412040000000 1.0   0.26
Fe     4 -0.2156930000000 -0.3014010000000  0.1960010000000 1.0   2.89
Fe     4  0.3014010000000  0.0857080000000  0.1960010000000 1.0   2.89
Fe     4 -0.0857080000000  0.2156930000000  0.1960010000000 1.0   2.89
Fe     4  0.3333330000000 -0.3333330000000  0.0995090000000 1.0  -1.73
END
