TITL LFSO-Li2Fe4S2O3-200912-074800-908674 -0.0614 324.135712 -1.15513196E+004 25.9964 26.5825 22 (R3) n - 1
REM
REM Run started: Sun, 13 Sep 2020 16:22:03 +0100 in /lustre/scratch/uccabz1/launch_tmp/launcher_2020-09-12-06-47-57-909633
REM CASTEP 20.1 from code version af48c487+ pr-geom-scf-spinfix Tue Jun 2 15:39:59 2020 +0100
REM Functional Perdew Burke Ernzerhof Relativity Koelling-Harmon Dispersion off
REM Cut-off 340.0000 eV Grid scale 1.7500 Gmax 16.5316 1/A FBSC none
REM MP grid 3 3 3 Offset 0.000 0.000 0.000 No. kpts 6 Spacing 0.07
REM Total runtime: 117578 s
REM Overall efficiency: 98.4167 %
REM
REM
REM
REM compiler GCC version 4.9.2
REM options -cpp -iprefix /lustre/shared/ucl/apps/gcc/4.9.2/bin/../lib/gcc/x86_64-unknown-linux-gnu/4.9.2/ -mtune=corei7 -march=x86-64 -g -Og
REM COMMAND_LINE
REM seed -349577292 1698172715 -2056862566 -956047922 1269269274 -1573338395 -259123143 -769989085 -1183776247 348837982 -1296519628 193419154
REM
REM S 3|1.8|5|6|7|30:31:32(qc=5)
REM O 2|1.5|12|13|15|20:21(qc=5)
REM Li 1|1.3|8|9|10|10U:20(qc=5)
REM Fe 3|2.2|2.0|1.0|8|9|10|40:41:32(qc=5)
REM 
CELL 1.54180    7.01127    7.01127    7.01127   77.77374   77.77375   77.77375
LATT -1
SFAC Li O  S  Fe 
Li     1 -0.3832450000000 -0.5467340000000 -0.1640980000000 1.0   0.02
Li     1 -0.1640980000000 -0.3832450000000 -0.5467340000000 1.0   0.02
Li     1 -0.5467340000000 -0.1640980000000 -0.3832450000000 1.0   0.02
Li     1  0.2274890000000  0.2274890000000  0.2274890000000 1.0  -0.09
O      2  0.3468830000000 -0.0149620000000  0.1062500000000 1.0   0.35
O      2  0.1062500000000  0.3468830000000 -0.0149620000000 1.0   0.35
O      2 -0.0149620000000  0.1062500000000  0.3468830000000 1.0   0.35
O      2  0.4026290000000 -0.3328310000000 -0.1379870000000 1.0   0.30
O      2 -0.1379870000000  0.4026290000000 -0.3328310000000 1.0   0.30
O      2 -0.3328310000000 -0.1379870000000  0.4026290000000 1.0   0.30
S      3 -0.5548240000000  0.1822520000000 -0.3425690000000 1.0   0.08
S      3 -0.3425690000000 -0.5548240000000  0.1822520000000 1.0   0.08
S      3  0.1822520000000 -0.3425690000000 -0.5548240000000 1.0   0.08
S      3 -0.0989760000000 -0.0989760000000 -0.0989760000000 1.0   0.22
Fe     4 -0.2942300000000  0.1326550000000  0.3636460000000 1.0   2.62
Fe     4  0.3636460000000 -0.2942300000000  0.1326550000000 1.0   2.62
Fe     4  0.1326550000000  0.3636460000000 -0.2942300000000 1.0   2.62
Fe     4  0.1418590000000  0.6153020000000 -0.0639670000000 1.0   3.48
Fe     4 -0.0639670000000  0.1418590000000  0.6153020000000 1.0   3.48
Fe     4  0.6153020000000 -0.0639670000000  0.1418590000000 1.0   3.48
Fe     4 -0.5884700000000 -0.5884700000000 -0.5884700000000 1.0   1.68
Fe     4  0.0612450000000  0.0612450000000  0.0612450000000 1.0   3.59
END
