TITL LFSO-Li5FeS3O-200910-103613-b9f244 -0.0413 329.682176 -3.20952445E+003 4.99771 5.09188 10 (Pm) n - 1
REM
REM Run started: Thu, 10 Sep 2020 16:50:52 +0100 in /lustre/scratch/uccabz1/launch_tmp/launcher_2020-09-10-09-36-12-132604
REM CASTEP 20.1 from code version af48c487+ pr-geom-scf-spinfix Tue Jun 2 15:39:59 2020 +0100
REM Functional Perdew Burke Ernzerhof Relativity Koelling-Harmon Dispersion off
REM Cut-off 340.0000 eV Grid scale 1.7500 Gmax 16.5316 1/A FBSC none
REM MP grid 4 2 2 Offset 0.000 0.000 0.000 No. kpts 4 Spacing 0.07
REM Total runtime: 25084.5 s
REM Overall efficiency: 97.25 %
REM
REM
REM
REM compiler GCC version 4.9.2
REM options -cpp -iprefix /lustre/shared/ucl/apps/gcc/4.9.2/bin/../lib/gcc/x86_64-unknown-linux-gnu/4.9.2/ -mtune=corei7 -march=x86-64 -g -Og
REM COMMAND_LINE
REM seed -285292818 -245611136 1500927917 1681911202 -520117882 -840489749 -639229491 1630834388 299395279 1783876956 534683353 474865749
REM
REM S 3|1.8|5|6|7|30:31:32(qc=5)
REM O 2|1.5|12|13|15|20:21(qc=5)
REM Li 1|1.3|8|9|10|10U:20(qc=5)
REM Fe 3|2.2|2.0|1.0|8|9|10|40:41:32(qc=5)
REM 
CELL 1.54180    4.10387    7.46802   11.05550   90.00000  103.34185   90.00000
LATT -1
SFAC Li O  S  Fe 
Li     1  0.0727560000000 -0.1888790000000  0.5663510000000 1.0  -0.02
Li     1  0.0727560000000  0.1888790000000  0.5663510000000 1.0  -0.02
Li     1 -0.2446470000000  0.5000000000000 -0.2261900000000 1.0   0.02
Li     1  0.0207290000000 -0.5000000000000  0.2407900000000 1.0  -0.03
Li     1 -0.4040490000000  0.5000000000000 -0.4788590000000 1.0   0.03
O      2 -0.2077480000000  0.0000000000000 -0.4424070000000 1.0   0.68
S      3 -0.1248820000000 -0.5000000000000  0.0041640000000 1.0   0.33
S      3 -0.4422730000000  0.5000000000000  0.3006920000000 1.0   0.34
S      3  0.1703060000000 -0.5000000000000 -0.3632300000000 1.0   0.02
Fe     4 -0.5711240000000  0.5000000000000  0.0926600000000 1.0   3.66
END
