TITL LFSO-Li6FeS3O-200910-031227-383dc7 1.7794 465.719265 -6.82445675E+003 0.444517 8.23338 22 (R3) n - 1
REM
REM Run started: Fri, 11 Sep 2020 14:12:07 +0100 in /lustre/scratch/uccabz1/launch_tmp/launcher_2020-09-11-12-38-06-661742
REM CASTEP 20.1 from code version af48c487+ pr-geom-scf-spinfix Tue Jun 2 15:39:59 2020 +0100
REM Functional Perdew Burke Ernzerhof Relativity Koelling-Harmon Dispersion off
REM Cut-off 340.0000 eV Grid scale 1.7500 Gmax 16.5316 1/A FBSC none
REM MP grid 3 3 3 Offset 0.000 0.000 0.000 No. kpts 6 Spacing 0.07
REM Total runtime: 88059.4 s
REM Overall efficiency: 98.6154 %
REM
REM
REM
REM compiler GCC version 4.9.2
REM options -cpp -iprefix /lustre/shared/ucl/apps/gcc/4.9.2/bin/../lib/gcc/x86_64-unknown-linux-gnu/4.9.2/ -mtune=corei7 -march=x86-64 -g -Og
REM COMMAND_LINE
REM seed -1229456921 -952192709 440073925 1222209941 -759878589 2050598587 1536631603 -984696715 -784265232 -10616592 994518523 -163840123
REM
REM S 3|1.8|5|6|7|30:31:32(qc=5)
REM O 2|1.5|12|13|15|20:21(qc=5)
REM Li 1|1.3|8|9|10|10U:20(qc=5)
REM Fe 3|2.2|2.0|1.0|8|9|10|40:41:32(qc=5)
REM 
CELL 1.54180    9.90611    9.90611    9.90611   46.41958   46.41958   46.41958
LATT -1
SFAC Li O  S  Fe 
Li     1 -0.3550840000000  0.3598860000000 -0.3096440000000 1.0  -0.06
Li     1  0.3598860000000 -0.3096440000000 -0.3550840000000 1.0  -0.06
Li     1 -0.3096440000000 -0.3550840000000  0.3598860000000 1.0  -0.06
Li     1 -0.1846470000000  0.1538630000000  0.2492520000000 1.0   0.02
Li     1  0.1538630000000  0.2492520000000 -0.1846470000000 1.0   0.02
Li     1  0.2492520000000 -0.1846470000000  0.1538630000000 1.0   0.02
Li     1  0.0251360000000  0.6304460000000  0.0029600000000 1.0   0.03
Li     1  0.6304460000000  0.0029600000000  0.0251360000000 1.0   0.03
Li     1  0.0029600000000  0.0251360000000  0.6304460000000 1.0   0.03
Li     1 -0.1355750000000  0.5186170000000 -0.4263010000000 1.0   0.03
Li     1  0.5186170000000 -0.4263010000000 -0.1355750000000 1.0   0.03
Li     1 -0.4263010000000 -0.1355750000000  0.5186170000000 1.0   0.03
O      2 -0.3920300000000 -0.3920300000000 -0.3920300000000 1.0  -0.00
O      2 -0.0901960000000 -0.0901960000000 -0.0901960000000 1.0   0.15
S      3 -0.6754870000000 -0.0744310000000 -0.1795530000000 1.0   0.14
S      3 -0.0744310000000 -0.1795530000000 -0.6754870000000 1.0   0.14
S      3 -0.1795530000000 -0.6754870000000 -0.0744310000000 1.0   0.14
S      3 -0.1409020000000  0.3126560000000  0.3855210000000 1.0  -0.15
S      3  0.3126560000000  0.3855210000000 -0.1409020000000 1.0  -0.15
S      3  0.3855210000000 -0.1409020000000  0.3126560000000 1.0  -0.15
Fe     4  0.1822750000000  0.1822750000000  0.1822750000000 1.0  -3.32
Fe     4 -0.0172420000000 -0.0172420000000 -0.0172420000000 1.0   3.61
END
