TITL LFSO-LiFe3SO4-200909-010345-817460 -0.0042 305.382201 -9.69005207E+003 8.56833 18.8395 18 (Imm2) n - 1
REM
REM Run started: Wed, 09 Sep 2020 08:04:34 +0100 in /lustre/scratch/uccabz1/launch_tmp/launcher_2020-09-09-00-03-42-429372
REM CASTEP 20.1 from code version af48c487+ pr-geom-scf-spinfix Tue Jun 2 15:39:59 2020 +0100
REM Functional Perdew Burke Ernzerhof Relativity Koelling-Harmon Dispersion off
REM Cut-off 340.0000 eV Grid scale 1.7500 Gmax 16.5316 1/A FBSC none
REM MP grid 3 3 2 Offset 0.000 0.000 0.000 No. kpts 8 Spacing 0.07
REM Total runtime: 25392 s
REM Overall efficiency: 97.4444 %
REM
REM
REM
REM compiler GCC version 4.9.2
REM options -cpp -iprefix /lustre/shared/ucl/apps/gcc/4.9.2/bin/../lib/gcc/x86_64-unknown-linux-gnu/4.9.2/ -mtune=corei7 -march=x86-64 -g -Og
REM COMMAND_LINE
REM seed 23323560 2053211070 764317673 -2110222955 -688169901 254298098 -1371248520 1849531809 -864748402 255550924 2144165158 153853923
REM
REM S 3|1.8|5|6|7|30:31:32(qc=5)
REM O 2|1.5|12|13|15|20:21(qc=5)
REM Li 1|1.3|8|9|10|10U:20(qc=5)
REM Fe 3|2.2|2.0|1.0|8|9|10|40:41:32(qc=5)
REM 
CELL 1.54180    6.01248    6.33937    9.12565  110.32460  109.23404   90.00000
LATT -1
SFAC Li O  S  Fe 
Li     1 -0.3108160000000 -0.1309820000000 -0.2619630000000 1.0   0.01
Li     1 -0.0488530000000  0.1309820000000  0.2619630000000 1.0   0.01
O      2 -0.0090180000000 -0.0097190000000 -0.5644090000000 1.0   0.28
O      2  0.5553910000000  0.0097190000000  0.5644090000000 1.0   0.28
O      2  0.5553910000000 -0.4453100000000  0.5644090000000 1.0   0.28
O      2 -0.0090180000000  0.4453100000000 -0.5644090000000 1.0   0.28
O      2 -0.0091710000000  0.1359290000000 -0.1938590000000 1.0   0.06
O      2  0.1846870000000 -0.1359290000000  0.1938590000000 1.0   0.06
O      2  0.1846870000000  0.3297880000000  0.1938590000000 1.0   0.06
O      2 -0.0091710000000 -0.3297880000000 -0.1938590000000 1.0   0.06
S      3 -0.4398630000000  0.3379990000000 -0.0000000000000 1.0   0.08
S      3 -0.4398630000000 -0.3379990000000 -0.0000000000000 1.0   0.08
Fe     4  0.2668630000000 -0.4975310000000  0.4074110000000 1.0   2.98
Fe     4 -0.1405480000000  0.4975310000000 -0.4074110000000 1.0   2.98
Fe     4 -0.1405480000000  0.0950580000000 -0.4074110000000 1.0   2.98
Fe     4  0.2668630000000 -0.0950580000000  0.4074110000000 1.0   2.98
Fe     4  0.1941830000000  0.3122480000000 -0.0000000000000 1.0  -2.45
Fe     4  0.1941830000000 -0.3122480000000 -0.0000000000000 1.0  -2.45
END
