TITL LFSO-Li4Fe3S2O3-201001-041500-1e8f61 0.0172 549.271197 -1.06217326E+004 -23.9720 24.5065 24 (Cmc21) n - 1
REM
REM Run started: Thu, 01 Oct 2020 17:11:44 +0100 in /lustre/scratch/uccabz1/launch_tmp/launcher_2020-10-01-03-14-59-279750
REM CASTEP 20.1 from code version af48c487+ pr-geom-scf-spinfix Tue Jun 2 15:39:59 2020 +0100
REM Functional Perdew Burke Ernzerhof Relativity Koelling-Harmon Dispersion off
REM Cut-off 340.0000 eV Grid scale 1.7500 Gmax 16.5316 1/A FBSC none
REM MP grid 2 3 2 Offset 0.000 0.000 0.000 No. kpts 3 Spacing 0.07
REM Total runtime: 37378.6 s
REM Overall efficiency: 77.5385 %
REM
REM
REM
REM compiler GCC version 4.9.2
REM options -cpp -iprefix /lustre/shared/ucl/apps/gcc/4.9.2/bin/../lib/gcc/x86_64-unknown-linux-gnu/4.9.2/ -mtune=corei7 -march=x86-64 -g -Og
REM COMMAND_LINE
REM seed -538322522 123674221 -952467571 570284841 -355621565 1747066050 1779954501 -47960187 -1270320582 -695375480 723082068 1437787560
REM
REM S 3|1.8|5|6|7|30:31:32(qc=5)
REM O 2|1.5|12|13|15|20:21(qc=5)
REM Li 1|1.3|8|9|10|10U:20(qc=5)
REM Fe 3|2.2|2.0|1.0|8|9|10|40:41:32(qc=5)
REM 
CELL 1.54180   10.70882    8.67074    7.52077   90.00000   90.00000  128.13566
LATT -1
SFAC Li O  S  Fe 
Li     1 -0.2717960000000  0.1267860000000  0.2382280000000 1.0   0.04
Li     1  0.2717950000000 -0.1267860000000 -0.2617720000000 1.0   0.04
Li     1 -0.3985820000000 -0.1267860000000 -0.2617720000000 1.0   0.04
Li     1  0.3985820000000  0.1267860000000  0.2382280000000 1.0   0.04
Li     1  0.5090710000000  0.2758020000000 -0.0626670000000 1.0   0.02
Li     1 -0.5090710000000 -0.2758020000000  0.4373330000000 1.0   0.02
Li     1  0.2332690000000 -0.2758020000000  0.4373330000000 1.0   0.02
Li     1 -0.2332690000000  0.2758020000000 -0.0626670000000 1.0   0.02
O      2 -0.2632900000000  0.1435220000000 -0.2883580000000 1.0  -0.33
O      2  0.2632900000000 -0.1435220000000  0.2116420000000 1.0  -0.33
O      2 -0.4068120000000 -0.1435220000000  0.2116420000000 1.0  -0.33
O      2  0.4068120000000  0.1435220000000 -0.2883580000000 1.0  -0.33
O      2 -0.4208660000000  0.1582680000000  0.0747370000000 1.0  -0.28
O      2  0.4208660000000 -0.1582680000000  0.5747370000000 1.0  -0.28
S      3 -0.4038910000000 -0.3946460000000 -0.1880900000000 1.0  -0.26
S      3  0.4038910000000  0.3946460000000  0.3119100000000 1.0  -0.26
S      3 -0.0092450000000  0.3946460000000  0.3119100000000 1.0  -0.26
S      3  0.0092450000000 -0.3946460000000 -0.1880900000000 1.0  -0.26
Fe     4  0.5222590000000  0.6284010000000  0.0902750000000 1.0  -3.61
Fe     4 -0.5222590000000 -0.6284010000000 -0.4097250000000 1.0  -3.61
Fe     4 -0.1061420000000 -0.6284010000000 -0.4097250000000 1.0  -3.61
Fe     4  0.1061420000000  0.6284010000000  0.0902750000000 1.0  -3.61
Fe     4  0.4426660000000 -0.1146690000000  0.1220930000000 1.0  -3.44
Fe     4 -0.4426660000000  0.1146690000000 -0.3779070000000 1.0  -3.44
END
