TITL LFSO-Li2Fe4S4O-200911-212521-6ce04a -0.0127 378.972042 -5.50632027E+003 10.0619 10.4433 11 (C222) n - 1
REM
REM Run started: Sat, 12 Sep 2020 02:37:00 +0100 in /lustre/scratch/uccabz1/launch_tmp/launcher_2020-09-11-20-25-19-547572
REM CASTEP 20.1 from code version af48c487+ pr-geom-scf-spinfix Tue Jun 2 15:39:59 2020 +0100
REM Functional Perdew Burke Ernzerhof Relativity Koelling-Harmon Dispersion off
REM Cut-off 340.0000 eV Grid scale 1.7500 Gmax 16.5316 1/A FBSC none
REM MP grid 5 2 2 Offset 0.000 0.000 0.000 No. kpts 5 Spacing 0.07
REM Total runtime: 22991.1 s
REM Overall efficiency: 82.6923 %
REM
REM
REM
REM compiler GCC version 4.9.2
REM options -cpp -iprefix /lustre/shared/ucl/apps/gcc/4.9.2/bin/../lib/gcc/x86_64-unknown-linux-gnu/4.9.2/ -mtune=corei7 -march=x86-64 -g -Og
REM COMMAND_LINE
REM seed -1421042103 -1459082418 1493285634 1950553824 1738363699 1339077094 -341100059 -317236584 1949629321 -267081029 2062958922 2046334242
REM
REM S 3|1.8|5|6|7|30:31:32(qc=5)
REM O 2|1.5|12|13|15|20:21(qc=5)
REM Li 1|1.3|8|9|10|10U:20(qc=5)
REM Fe 3|2.2|2.0|1.0|8|9|10|40:41:32(qc=5)
REM 
CELL 1.54180    3.55556    7.33047   14.98751   90.00000   90.00000  104.03532
LATT -1
SFAC Li O  S  Fe 
Li     1 -0.5000000000000  0.5000000000000 -0.3185820000000 1.0   0.01
Li     1  0.0000000000000  0.5000000000000  0.3185820000000 1.0   0.01
O      2 -0.5000000000000  0.0000000000000 -0.5000000000000 1.0   0.02
S      3 -0.5848870000000  0.2471630000000  0.3469300000000 1.0   0.21
S      3  0.5848870000000 -0.2471630000000  0.3469300000000 1.0   0.21
S      3  0.1679500000000 -0.2471630000000 -0.3469300000000 1.0   0.21
S      3 -0.1679500000000  0.2471630000000 -0.3469300000000 1.0   0.21
Fe     4 -0.2535250000000 -0.1353340000000 -0.4230040000000 1.0   2.30
Fe     4  0.2535250000000  0.1353340000000 -0.4230040000000 1.0   2.30
Fe     4 -0.1181910000000  0.1353340000000  0.4230040000000 1.0   2.30
Fe     4  0.1181910000000 -0.1353340000000  0.4230040000000 1.0   2.30
END
