TITL LFSO-Li5FeS2O2-200920-230758-972f90 -0.0208 437.310402 -6.69021632E+003 7.99425 8.17970 20 (I-4) n - 1
REM
REM Run started: Mon, 21 Sep 2020 08:34:08 +0100 in /lustre/scratch/uccabz1/launch_tmp/launcher_2020-09-20-22-07-57-025176
REM CASTEP 20.1 from code version af48c487+ pr-geom-scf-spinfix Tue Jun 2 15:39:59 2020 +0100
REM Functional Perdew Burke Ernzerhof Relativity Koelling-Harmon Dispersion off
REM Cut-off 340.0000 eV Grid scale 1.7500 Gmax 16.5316 1/A FBSC none
REM MP grid 3 3 3 Offset 0.000 0.000 0.000 No. kpts 6 Spacing 0.07
REM Total runtime: 34141.9 s
REM Overall efficiency: 97.7273 %
REM
REM
REM
REM compiler GCC version 4.9.2
REM options -cpp -iprefix /lustre/shared/ucl/apps/gcc/4.9.2/bin/../lib/gcc/x86_64-unknown-linux-gnu/4.9.2/ -mtune=corei7 -march=x86-64 -g -Og
REM COMMAND_LINE
REM seed -753288397 1573416143 -805207024 261501106 -911011738 372711684 1484022217 -11636060 -676319956 1874172816 -1668427911 -1080445137
REM
REM S 3|1.8|5|6|7|30:31:32(qc=5)
REM O 2|1.5|12|13|15|20:21(qc=5)
REM Li 1|1.3|8|9|10|10U:20(qc=5)
REM Fe 3|2.2|2.0|1.0|8|9|10|40:41:32(qc=5)
REM 
CELL 1.54180    9.22233    9.22233    8.30440  123.72919  123.72919   90.00000
LATT -1
SFAC Li O  S  Fe 
Li     1  0.2126570000000  0.6005870000000 -0.3732480000000 1.0  -0.00
Li     1  0.4140950000000  0.0261650000000 -0.3732480000000 1.0  -0.00
Li     1 -0.6005870000000 -0.4140950000000  0.3732480000000 1.0  -0.00
Li     1 -0.0261650000000 -0.2126570000000  0.3732480000000 1.0  -0.00
Li     1 -0.2124020000000  0.2518720000000 -0.0346870000000 1.0  -0.01
Li     1  0.1777150000000 -0.2865590000000 -0.0346870000000 1.0  -0.01
Li     1 -0.2518720000000 -0.1777150000000  0.0346870000000 1.0  -0.01
Li     1  0.2865590000000  0.2124020000000  0.0346870000000 1.0  -0.01
Li     1 -0.1177590000000 -0.1177590000000 -0.2355180000000 1.0  -0.04
Li     1  0.1177590000000  0.1177590000000  0.2355180000000 1.0  -0.04
O      2 -0.4389030000000  0.2947150000000 -0.1716700000000 1.0   0.39
O      2  0.2672340000000  0.5336150000000 -0.1716700000000 1.0   0.39
O      2 -0.2947150000000 -0.2672340000000  0.1716700000000 1.0   0.39
O      2 -0.5336150000000  0.4389030000000  0.1716700000000 1.0   0.39
S      3  0.0960990000000 -0.1166030000000  0.2459650000000 1.0   0.04
S      3  0.1498660000000 -0.6374320000000  0.2459650000000 1.0   0.04
S      3  0.1166030000000 -0.1498660000000 -0.2459650000000 1.0   0.04
S      3  0.6374320000000 -0.0960990000000 -0.2459650000000 1.0   0.04
Fe     4 -0.3925290000000 -0.3925290000000  0.2149420000000 1.0   3.19
Fe     4  0.3925290000000  0.3925290000000 -0.2149420000000 1.0   3.19
END
