TITL LFSO-Li2Fe2SO2-200912-222941-de14d3 -0.0392 77.437285 -3.30665295E+003 7.00231 7.21876 7 (P-1) n - 1
REM
REM Run started: Sat, 12 Sep 2020 23:11:04 +0100 in /lustre/scratch/uccabz1/launch_tmp/launcher_2020-09-12-21-29-40-234548
REM CASTEP 20.1 from code version af48c487+ pr-geom-scf-spinfix Tue Jun 2 15:39:59 2020 +0100
REM Functional Perdew Burke Ernzerhof Relativity Koelling-Harmon Dispersion off
REM Cut-off 340.0000 eV Grid scale 1.7500 Gmax 16.5316 1/A FBSC none
REM MP grid 6 6 2 Offset 0.000 0.000 0.000 No. kpts 36 Spacing 0.07
REM Total runtime: 2635.54 s
REM Overall efficiency: 92.5 %
REM
REM
REM
REM compiler GCC version 4.9.2
REM options -cpp -iprefix /lustre/shared/ucl/apps/gcc/4.9.2/bin/../lib/gcc/x86_64-unknown-linux-gnu/4.9.2/ -mtune=corei7 -march=x86-64 -g -Og
REM COMMAND_LINE
REM seed -461645707 -956997833 -65487796 -590970836 -1591117097 574813448 1494063760 680368267 833176678 819881932 -1389258345 1653033033
REM
REM S 3|1.8|5|6|7|30:31:32(qc=5)
REM O 2|1.5|12|13|15|20:21(qc=5)
REM Li 1|1.3|8|9|10|10U:20(qc=5)
REM Fe 3|2.2|2.0|1.0|8|9|10|40:41:32(qc=5)
REM 
CELL 1.54180    2.79997    2.96733   10.96180   82.66419   89.25711  120.58618
LATT -1
SFAC Li O  S  Fe 
Li     1  0.0252010000000 -0.3695730000000 -0.1927300000000 1.0   0.00
Li     1 -0.0252010000000  0.3695730000000  0.1927300000000 1.0   0.00
O      2 -0.4234880000000 -0.3727890000000  0.2981640000000 1.0   0.32
O      2  0.4234880000000  0.3727890000000 -0.2981640000000 1.0   0.32
S      3  0.0000000000000  0.0000000000000  0.0000000000000 1.0   0.00
Fe     4  0.2041200000000 -0.1079160000000  0.4077860000000 1.0   3.18
Fe     4 -0.2041200000000  0.1079160000000 -0.4077860000000 1.0   3.18
END
