TITL LFSO-Li2FeSO-200912-045622-a11b03 0.0179 58.633934 -2.00520817E+003 2.95082 3.16453 5 (P2) n - 1
REM
REM Run started: Sat, 12 Sep 2020 05:06:11 +0100 in /lustre/scratch/uccabz1/launch_tmp/launcher_2020-09-12-03-56-20-095412
REM CASTEP 20.1 from code version af48c487+ pr-geom-scf-spinfix Tue Jun 2 15:39:59 2020 +0100
REM Functional Perdew Burke Ernzerhof Relativity Koelling-Harmon Dispersion off
REM Cut-off 340.0000 eV Grid scale 1.7500 Gmax 16.5316 1/A FBSC none
REM MP grid 3 4 5 Offset 0.000 0.000 0.000 No. kpts 16 Spacing 0.07
REM Total runtime: 692.72 s
REM Overall efficiency: 85.5 %
REM
REM
REM
REM compiler GCC version 4.9.2
REM options -cpp -iprefix /lustre/shared/ucl/apps/gcc/4.9.2/bin/../lib/gcc/x86_64-unknown-linux-gnu/4.9.2/ -mtune=corei7 -march=x86-64 -g -Og
REM COMMAND_LINE
REM seed 429455166 -901110039 -561982269 1089178390 1406409621 -2023693558 -800698396 -109170168 420128773 1055123404 444784532 966818829
REM
REM S 3|1.8|5|6|7|30:31:32(qc=5)
REM O 2|1.5|12|13|15|20:21(qc=5)
REM Li 1|1.3|8|9|10|10U:20(qc=5)
REM Fe 3|2.2|2.0|1.0|8|9|10|40:41:32(qc=5)
REM 
CELL 1.54180    5.04409    3.84125    3.02885   90.00000   92.40984   90.00000
LATT -1
SFAC Li O  S  Fe 
Li     1 -0.2480570000000 -0.0201600000000  0.0251300000000 1.0  -0.06
Li     1  0.2480570000000 -0.0201600000000 -0.0251300000000 1.0  -0.06
O      2 -0.5000000000000  0.0075650000000 -0.5000000000000 1.0   0.18
S      3  0.0000000000000 -0.4877070000000  0.5000000000000 1.0   0.01
Fe     4  0.5000000000000 -0.4940490000000  0.5000000000000 1.0   2.88
END
