TITL LFSO-Li4Fe2SO3-200910-220025-71b48b 0.0123 159.934377 -4.14368607E+003 8.00616 8.09274 10 (C2/m) n - 1
REM
REM Run started: Thu, 10 Sep 2020 22:31:55 +0100 in /lustre/scratch/uccabz1/launch_tmp/launcher_2020-09-10-21-00-23-393825
REM CASTEP 20.1 from code version af48c487+ pr-geom-scf-spinfix Tue Jun 2 15:39:59 2020 +0100
REM Functional Perdew Burke Ernzerhof Relativity Koelling-Harmon Dispersion off
REM Cut-off 340.0000 eV Grid scale 1.7500 Gmax 16.5316 1/A FBSC none
REM MP grid 3 3 3 Offset 0.000 0.000 0.000 No. kpts 10 Spacing 0.07
REM Total runtime: 2034.58 s
REM Overall efficiency: 77.1667 %
REM
REM
REM
REM compiler GCC version 4.9.2
REM options -cpp -iprefix /lustre/shared/ucl/apps/gcc/4.9.2/bin/../lib/gcc/x86_64-unknown-linux-gnu/4.9.2/ -mtune=corei7 -march=x86-64 -g -Og
REM COMMAND_LINE
REM seed -879102050 1233962176 341055231 -586147471 620454868 1750132638 815698084 777450186 -1939420827 671869973 -268269449 435235765
REM
REM S 3|1.8|5|6|7|30:31:32(qc=5)
REM O 2|1.5|12|13|15|20:21(qc=5)
REM Li 1|1.3|8|9|10|10U:20(qc=5)
REM Fe 3|2.2|2.0|1.0|8|9|10|40:41:32(qc=5)
REM 
CELL 1.54180    5.64999    5.80244    5.80244  122.72797   90.93340   90.93340
LATT -1
SFAC Li O  S  Fe 
Li     1 -0.3552200000000  0.1286260000000 -0.5013590000000 1.0  -0.02
Li     1  0.3552200000000  0.5013590000000 -0.1286260000000 1.0  -0.02
Li     1  0.3552200000000 -0.1286260000000  0.5013590000000 1.0  -0.02
Li     1 -0.3552200000000 -0.5013590000000  0.1286260000000 1.0  -0.02
O      2 -0.5000000000000  0.1732230000000 -0.1732230000000 1.0   0.20
O      2  0.5000000000000 -0.1732230000000  0.1732230000000 1.0   0.20
O      2  0.0000000000000 -0.0000000000000  0.0000000000000 1.0   0.39
S      3 -0.5000000000000  0.5000000000000  0.5000000000000 1.0   0.17
Fe     4 -0.3173840000000 -0.1106210000000 -0.1106210000000 1.0   3.56
Fe     4  0.3173840000000  0.1106210000000  0.1106210000000 1.0   3.56
END
