TITL LFSO-Li4Fe3S4O-200926-064239-2d452b -0.0340 165.613859 -5.04270602E+003 -0.421907E-02 0.461096E-02 12 (P3) n - 1
REM
REM Run started: Sat, 26 Sep 2020 07:54:58 +0100 in /lustre/scratch/uccabz1/launch_tmp/launcher_2020-09-26-05-42-37-024108
REM CASTEP 20.1 from code version af48c487+ pr-geom-scf-spinfix Tue Jun 2 15:39:59 2020 +0100
REM Functional Perdew Burke Ernzerhof Relativity Koelling-Harmon Dispersion off
REM Cut-off 340.0000 eV Grid scale 1.7500 Gmax 16.5316 1/A FBSC none
REM MP grid 3 3 3 Offset 0.000 0.000 0.000 No. kpts 8 Spacing 0.07
REM Total runtime: 4398.61 s
REM Overall efficiency: 93.25 %
REM
REM
REM
REM compiler GCC version 4.9.2
REM options -cpp -iprefix /lustre/shared/ucl/apps/gcc/4.9.2/bin/../lib/gcc/x86_64-unknown-linux-gnu/4.9.2/ -mtune=corei7 -march=x86-64 -g -Og
REM COMMAND_LINE
REM seed -2126252044 2103076248 -843749080 1614123553 227495892 -1921918792 668264504 1135184031 -409248036 -339423175 -1578040785 1108874202
REM
REM S 3|1.8|5|6|7|30:31:32(qc=5)
REM O 2|1.5|12|13|15|20:21(qc=5)
REM Li 1|1.3|8|9|10|10U:20(qc=5)
REM Fe 3|2.2|2.0|1.0|8|9|10|40:41:32(qc=5)
REM 
CELL 1.54180    5.73193    5.73193    5.82055   90.00000   90.00000  120.00000
LATT -1
SFAC Li O  S  Fe 
Li     1 -0.0796880000000  0.2110910000000  0.1754060000000 1.0
Li     1  0.2907790000000  0.0796880000000  0.1754060000000 1.0
Li     1 -0.2110910000000 -0.2907790000000  0.1754060000000 1.0
Li     1  0.3333330000000 -0.3333330000000 -0.0440760000000 1.0
O      2  0.0000000000000  0.0000000000000  0.3783140000000 1.0
S      3 -0.0267020000000 -0.3401950000000 -0.2067690000000 1.0
S      3 -0.3134930000000  0.0267020000000 -0.2067690000000 1.0
S      3  0.3401950000000  0.3134930000000 -0.2067690000000 1.0
S      3  0.3333330000000 -0.3333330000000  0.3486070000000 1.0
Fe     4 -0.3514620000000 -0.3297040000000 -0.3890470000000 1.0
Fe     4  0.0217580000000  0.3514620000000 -0.3890470000000 1.0
Fe     4  0.3297040000000 -0.0217580000000 -0.3890470000000 1.0
END
