TITL LFSO-Li3Fe3S2O4-200928-205421-88c86f -0.0074 292.918076 -1.11015681E+004 19.0336 19.3421 24 (P21) n - 1
REM
REM Run started: Tue, 29 Sep 2020 08:32:59 +0100 in /lustre/scratch/uccabz1/launch_tmp/launcher_2020-09-28-19-54-19-516214
REM CASTEP 20.1 from code version af48c487+ pr-geom-scf-spinfix Tue Jun 2 15:39:59 2020 +0100
REM Functional Perdew Burke Ernzerhof Relativity Koelling-Harmon Dispersion off
REM Cut-off 340.0000 eV Grid scale 1.7500 Gmax 16.5316 1/A FBSC none
REM MP grid 4 2 2 Offset 0.000 0.000 0.000 No. kpts 4 Spacing 0.07
REM Total runtime: 44114.8 s
REM Overall efficiency: 98 %
REM
REM
REM
REM compiler GCC version 4.9.2
REM options -cpp -iprefix /lustre/shared/ucl/apps/gcc/4.9.2/bin/../lib/gcc/x86_64-unknown-linux-gnu/4.9.2/ -mtune=corei7 -march=x86-64 -g -Og
REM COMMAND_LINE
REM seed -1395237494 322837561 1726472821 2000376923 -370413190 1807477332 -144420595 201434744 1925558920 562553809 1988191890 -104962799
REM
REM S 3|1.8|5|6|7|30:31:32(qc=5)
REM O 2|1.5|12|13|15|20:21(qc=5)
REM Li 1|1.3|8|9|10|10U:20(qc=5)
REM Fe 3|2.2|2.0|1.0|8|9|10|40:41:32(qc=5)
REM 
CELL 1.54180    3.72740    7.63480   10.49826   90.00000   90.00000  101.34872
LATT -1
SFAC Li O  S  Fe 
Li     1  0.6812900000000 -0.0135850000000 -0.1721740000000 1.0  -0.04
Li     1 -0.6812900000000  0.0135850000000  0.3278260000000 1.0  -0.04
Li     1 -0.5185380000000  0.3863890000000 -0.3903550000000 1.0  -0.01
Li     1  0.5185380000000 -0.3863890000000  0.1096450000000 1.0  -0.01
Li     1  0.0239940000000  0.6350670000000 -0.2739000000000 1.0  -0.02
Li     1 -0.0239940000000 -0.6350670000000  0.2261000000000 1.0  -0.02
O      2  0.3650190000000  0.1730220000000  0.4910720000000 1.0   0.16
O      2 -0.3650190000000 -0.1730220000000 -0.0089280000000 1.0   0.16
O      2  0.1289880000000 -0.1195760000000 -0.2171380000000 1.0   0.28
O      2 -0.1289880000000  0.1195760000000  0.2828620000000 1.0   0.28
O      2  0.5215140000000  0.1939130000000 -0.2582700000000 1.0   0.24
O      2 -0.5215140000000 -0.1939130000000  0.2417300000000 1.0   0.24
O      2  0.4745370000000  0.5305420000000 -0.2509490000000 1.0   0.33
O      2 -0.4745370000000 -0.5305420000000  0.2490510000000 1.0   0.33
S      3  0.2808210000000  0.1291900000000  0.0332450000000 1.0   0.10
S      3 -0.2808210000000 -0.1291900000000 -0.4667550000000 1.0   0.10
S      3 -0.0030440000000  0.4991990000000 -0.0263500000000 1.0   0.14
S      3  0.0030440000000 -0.4991990000000  0.4736500000000 1.0   0.14
Fe     4 -0.2474240000000 -0.0141920000000  0.1387830000000 1.0   2.59
Fe     4  0.2474240000000  0.0141920000000 -0.3612170000000 1.0   2.59
Fe     4  0.4194160000000  0.3617090000000 -0.1370300000000 1.0   2.83
Fe     4 -0.4194160000000 -0.3617090000000  0.3629700000000 1.0   2.83
Fe     4  0.1297920000000 -0.1818070000000 -0.0344180000000 1.0   2.90
Fe     4 -0.1297920000000  0.1818070000000 -0.5344180000000 1.0   2.90
END
