TITL LFSO-Li5FeS2O2-200920-233917-a7e3bd -0.0093 211.358713 -3.34398731E+003 4.80840 4.88243 10 (R3) n - 1
REM
REM Run started: Mon, 21 Sep 2020 03:24:30 +0100 in /lustre/scratch/uccabz1/launch_tmp/launcher_2020-09-20-22-39-16-096496
REM CASTEP 20.1 from code version af48c487+ pr-geom-scf-spinfix Tue Jun 2 15:39:59 2020 +0100
REM Functional Perdew Burke Ernzerhof Relativity Koelling-Harmon Dispersion off
REM Cut-off 340.0000 eV Grid scale 1.7500 Gmax 16.5316 1/A FBSC none
REM MP grid 3 3 3 Offset 0.000 0.000 0.000 No. kpts 6 Spacing 0.07
REM Total runtime: 14673.8 s
REM Overall efficiency: 97.2308 %
REM
REM
REM
REM compiler GCC version 4.9.2
REM options -cpp -iprefix /lustre/shared/ucl/apps/gcc/4.9.2/bin/../lib/gcc/x86_64-unknown-linux-gnu/4.9.2/ -mtune=corei7 -march=x86-64 -g -Og
REM COMMAND_LINE
REM seed 607626661 -1832434156 109012054 1975295675 586345486 1785214056 1918594007 -642019027 -583186880 325170688 1790736 1417288168
REM
REM S 3|1.8|5|6|7|30:31:32(qc=5)
REM O 2|1.5|12|13|15|20:21(qc=5)
REM Li 1|1.3|8|9|10|10U:20(qc=5)
REM Fe 3|2.2|2.0|1.0|8|9|10|40:41:32(qc=5)
REM 
CELL 1.54180    5.88934    5.88934    7.81497   67.86446   67.86446   60.00000
LATT -1
SFAC Li O  S  Fe 
Li     1 -0.0663320000000  0.3822170000000  0.1477580000000 1.0  -0.02
Li     1  0.3822170000000 -0.4636430000000  0.1477580000000 1.0  -0.02
Li     1 -0.4636430000000 -0.0663320000000  0.1477580000000 1.0  -0.02
Li     1 -0.2781280000000 -0.2781280000000  0.8343850000000 1.0   0.01
Li     1  0.1046230000000  0.1046230000000 -0.3138690000000 1.0  -0.01
O      2 -0.1956350000000 -0.1956350000000  0.5869030000000 1.0   0.54
O      2 -0.3600620000000 -0.3600620000000  1.0801870000000 1.0   0.05
S      3  0.2141560000000  0.2141560000000 -0.6424680000000 1.0   0.32
S      3 -0.0102510000000 -0.0102510000000  0.0307520000000 1.0   0.18
Fe     4 -0.1149600000000 -0.1149600000000  0.3448810000000 1.0   3.78
END
