TITL LFSO-Li4Fe3SO4-200930-185753-2b6104 0.0848 177.716951 -5.44308178E+003 9.99951 10.4308 12 (P3) n - 1
REM
REM Run started: Wed, 30 Sep 2020 20:21:33 +0100 in /lustre/scratch/uccabz1/launch_tmp/launcher_2020-09-30-17-57-51-729457
REM CASTEP 20.1 from code version af48c487+ pr-geom-scf-spinfix Tue Jun 2 15:39:59 2020 +0100
REM Functional Perdew Burke Ernzerhof Relativity Koelling-Harmon Dispersion off
REM Cut-off 340.0000 eV Grid scale 1.7500 Gmax 16.5316 1/A FBSC none
REM MP grid 4 4 3 Offset 0.000 0.000 0.000 No. kpts 24 Spacing 0.07
REM Total runtime: 5257.89 s
REM Overall efficiency: 83 %
REM
REM
REM
REM compiler GCC version 4.9.2
REM options -cpp -iprefix /lustre/shared/ucl/apps/gcc/4.9.2/bin/../lib/gcc/x86_64-unknown-linux-gnu/4.9.2/ -mtune=corei7 -march=x86-64 -g -Og
REM COMMAND_LINE
REM seed 1664271476 -876255270 -312861379 -1985349914 -1768640002 2031499269 -535026443 -251849428 1737729703 -511678792 15340528 -149241445
REM
REM S 3|1.8|5|6|7|30:31:32(qc=5)
REM O 2|1.5|12|13|15|20:21(qc=5)
REM Li 1|1.3|8|9|10|10U:20(qc=5)
REM Fe 3|2.2|2.0|1.0|8|9|10|40:41:32(qc=5)
REM 
CELL 1.54180    5.41871    5.41871    6.98887   90.00000   90.00000  120.00000
LATT -1
SFAC Li O  S  Fe 
Li     1  0.2994920000000 -0.0320450000000 -0.7630430000000 1.0   0.01
Li     1  0.0320450000000  0.3315370000000 -0.7630430000000 1.0   0.01
Li     1 -0.3315370000000 -0.2994920000000 -0.7630430000000 1.0   0.01
Li     1 -0.3333330000000  0.3333330000000  0.1662510000000 1.0  -0.04
O      2  0.3431710000000  0.3414370000000  0.1355540000000 1.0   0.25
O      2 -0.3414370000000  0.0017340000000  0.1355540000000 1.0   0.25
O      2 -0.0017340000000 -0.3431710000000  0.1355540000000 1.0   0.25
O      2 -0.3333330000000  0.3333330000000  0.4500690000000 1.0   0.03
S      3 -0.3333330000000  0.3333330000000 -0.3198760000000 1.0   0.00
Fe     4  0.0274390000000 -0.3710080000000 -0.1181610000000 1.0   3.07
Fe     4  0.3710080000000  0.3984470000000 -0.1181610000000 1.0   3.07
Fe     4 -0.3984470000000 -0.0274390000000 -0.1181610000000 1.0   3.07
END
