TITL LFSO-Li2Fe4S4O-200911-221444-8afdb1 0.0231 205.509169 -5.50516782E+003 5.91214 7.17977 11 (Cm) n - 1
REM
REM Run started: Sat, 12 Sep 2020 03:23:25 +0100 in /lustre/scratch/uccabz1/launch_tmp/launcher_2020-09-11-21-14-42-879736
REM CASTEP 20.1 from code version af48c487+ pr-geom-scf-spinfix Tue Jun 2 15:39:59 2020 +0100
REM Functional Perdew Burke Ernzerhof Relativity Koelling-Harmon Dispersion off
REM Cut-off 340.0000 eV Grid scale 1.7500 Gmax 16.5316 1/A FBSC none
REM MP grid 4 4 2 Offset 0.000 0.000 0.000 No. kpts 10 Spacing 0.07
REM Total runtime: 18595.7 s
REM Overall efficiency: 77.1429 %
REM
REM
REM
REM compiler GCC version 4.9.2
REM options -cpp -iprefix /lustre/shared/ucl/apps/gcc/4.9.2/bin/../lib/gcc/x86_64-unknown-linux-gnu/4.9.2/ -mtune=corei7 -march=x86-64 -g -Og
REM COMMAND_LINE
REM seed 1938922124 1086500900 1009625792 -1794827677 1005466310 -787092261 -1973899695 -904417735 -422316079 1899460234 1500034584 993387330
REM
REM S 3|1.8|5|6|7|30:31:32(qc=5)
REM O 2|1.5|12|13|15|20:21(qc=5)
REM Li 1|1.3|8|9|10|10U:20(qc=5)
REM Fe 3|2.2|2.0|1.0|8|9|10|40:41:32(qc=5)
REM 
CELL 1.54180    4.69651    4.69651   10.42505   72.73316   72.73316   95.33946
LATT -1
SFAC Li O  S  Fe 
Li     1 -0.4146730000000 -0.0259130000000  0.3856360000000 1.0  -0.01
Li     1 -0.0259130000000  0.5853270000000  0.3856360000000 1.0  -0.01
O      2 -0.1171180000000 -0.1171180000000  0.2449950000000 1.0   0.19
S      3  0.4731630000000 -0.0800960000000 -0.1291780000000 1.0   0.03
S      3 -0.0800960000000  0.4731630000000 -0.1291780000000 1.0   0.03
S      3  0.1499480000000 -0.3591990000000 -0.4296940000000 1.0   0.06
S      3  0.6408010000000  0.1499480000000 -0.4296940000000 1.0   0.06
Fe     4  0.1653210000000 -0.1622900000000  0.0843660000000 1.0   3.02
Fe     4 -0.1622900000000  0.1653210000000  0.0843660000000 1.0   3.02
Fe     4  0.3867580000000 -0.3050900000000 -0.2804150000000 1.0  -0.24
Fe     4  0.6949100000000  0.3867580000000 -0.2804150000000 1.0  -0.24
END
