TITL LFSO-Li6FeSO3-200909-223155-bfcb3c 0.0639 138.346834 -3.68103395E+003 4.00011 4.09045 11 (R3) n - 1
REM
REM Run started: Thu, 10 Sep 2020 00:02:27 +0100 in /lustre/scratch/uccabz1/launch_tmp/launcher_2020-09-09-21-31-53-486129
REM CASTEP 20.1 from code version af48c487+ pr-geom-scf-spinfix Tue Jun 2 15:39:59 2020 +0100
REM Functional Perdew Burke Ernzerhof Relativity Koelling-Harmon Dispersion off
REM Cut-off 340.0000 eV Grid scale 1.7500 Gmax 16.5316 1/A FBSC none
REM MP grid 3 3 3 Offset 0.000 0.000 0.000 No. kpts 6 Spacing 0.07
REM Total runtime: 5462.39 s
REM Overall efficiency: 92.625 %
REM
REM
REM
REM compiler GCC version 4.9.2
REM options -cpp -iprefix /lustre/shared/ucl/apps/gcc/4.9.2/bin/../lib/gcc/x86_64-unknown-linux-gnu/4.9.2/ -mtune=corei7 -march=x86-64 -g -Og
REM COMMAND_LINE
REM seed 1757510347 347863644 1208921042 -663526390 661594362 378325235 -1098961378 -1956382664 -925498984 -775732091 1944908323 -1213457953
REM
REM S 3|1.8|5|6|7|30:31:32(qc=5)
REM O 2|1.5|12|13|15|20:21(qc=5)
REM Li 1|1.3|8|9|10|10U:20(qc=5)
REM Fe 3|2.2|2.0|1.0|8|9|10|40:41:32(qc=5)
REM 
CELL 1.54180    5.38019    5.38019    5.38019  104.22625  104.22625  104.22625
LATT -1
SFAC Li O  S  Fe 
Li     1 -0.3154790000000 -0.2337430000000  0.3916560000000 1.0  -0.03
Li     1 -0.2337430000000  0.3916560000000 -0.3154790000000 1.0  -0.03
Li     1  0.3916560000000 -0.3154790000000 -0.2337430000000 1.0  -0.03
Li     1 -0.4677430000000  0.2631260000000 -0.0138200000000 1.0  -0.01
Li     1  0.2631260000000 -0.0138200000000 -0.4677430000000 1.0  -0.01
Li     1 -0.0138200000000 -0.4677430000000  0.2631260000000 1.0  -0.01
O      2  0.6188780000000  0.0177900000000 -0.2840130000000 1.0   0.14
O      2  0.0177900000000 -0.2840130000000  0.6188780000000 1.0   0.14
O      2 -0.2840130000000  0.6188780000000  0.0177900000000 1.0   0.14
S      3  0.2824980000000  0.2824980000000  0.2824980000000 1.0   0.07
Fe     4 -0.0732720000000 -0.0732720000000 -0.0732720000000 1.0   3.60
END
