TITL LFSO-Li2Fe4SO4-200912-002531-fcb49d -0.0052 170.953163 -5.90807711E+003 12.3908 12.6024 11 (Pmm2) n - 1
REM
REM Run started: Sat, 12 Sep 2020 04:35:15 +0100 in /lustre/scratch/uccabz1/launch_tmp/launcher_2020-09-11-23-25-28-934238
REM CASTEP 20.1 from code version af48c487+ pr-geom-scf-spinfix Tue Jun 2 15:39:59 2020 +0100
REM Functional Perdew Burke Ernzerhof Relativity Koelling-Harmon Dispersion off
REM Cut-off 340.0000 eV Grid scale 1.7500 Gmax 16.5316 1/A FBSC none
REM MP grid 5 2 3 Offset 0.000 0.000 0.000 No. kpts 8 Spacing 0.07
REM Total runtime: 9454.56 s
REM Overall efficiency: 90.625 %
REM
REM
REM
REM compiler GCC version 4.9.2
REM options -cpp -iprefix /lustre/shared/ucl/apps/gcc/4.9.2/bin/../lib/gcc/x86_64-unknown-linux-gnu/4.9.2/ -mtune=corei7 -march=x86-64 -g -Og
REM COMMAND_LINE
REM seed -463150305 -702921316 -1077254356 1067913224 -856588481 1952144915 238421758 1307611809 558044665 1017110842 561795872 -1223450872
REM
REM S 3|1.8|5|6|7|30:31:32(qc=5)
REM O 2|1.5|12|13|15|20:21(qc=5)
REM Li 1|1.3|8|9|10|10U:20(qc=5)
REM Fe 3|2.2|2.0|1.0|8|9|10|40:41:32(qc=5)
REM 
CELL 1.54180    3.45900    7.22234    6.84307   90.00000   89.83392   90.00000
LATT -1
SFAC Li O  S  Fe 
Li     1  0.5202670000000 -0.2781940000000  0.2135960000000 1.0  -0.04
Li     1  0.5202670000000  0.2781940000000  0.2135960000000 1.0  -0.04
O      2  0.5141840000000 -0.2353210000000 -0.4914240000000 1.0   0.27
O      2  0.5141840000000  0.2353210000000 -0.4914240000000 1.0   0.27
O      2 -0.4833980000000  0.2647650000000 -0.0650450000000 1.0   0.26
O      2 -0.4833980000000 -0.2647650000000 -0.0650450000000 1.0   0.26
S      3  0.0158280000000  0.5000000000000  0.2606960000000 1.0   0.07
Fe     4  0.0150640000000 -0.3032750000000 -0.4647590000000 1.0   2.66
Fe     4  0.0150640000000  0.3032750000000 -0.4647590000000 1.0   2.66
Fe     4  0.0173680000000  0.3209850000000 -0.1167450000000 1.0   3.00
Fe     4  0.0173680000000 -0.3209850000000 -0.1167450000000 1.0   3.00
END
