TITL LFSO-Li4Fe3SO4-200930-203645-ad1867 0.0082 144.919431 -5.44569811E+003 11.8859 12.0800 12 (P3) n - 1
REM
REM Run started: Wed, 30 Sep 2020 22:06:12 +0100 in /lustre/scratch/uccabz1/launch_tmp/launcher_2020-09-30-19-36-43-540055
REM CASTEP 20.1 from code version af48c487+ pr-geom-scf-spinfix Tue Jun 2 15:39:59 2020 +0100
REM Functional Perdew Burke Ernzerhof Relativity Koelling-Harmon Dispersion off
REM Cut-off 340.0000 eV Grid scale 1.7500 Gmax 16.5316 1/A FBSC none
REM MP grid 4 4 3 Offset 0.000 0.000 0.000 No. kpts 24 Spacing 0.07
REM Total runtime: 6062.4 s
REM Overall efficiency: 95.625 %
REM
REM
REM
REM compiler GCC version 4.9.2
REM options -cpp -iprefix /lustre/shared/ucl/apps/gcc/4.9.2/bin/../lib/gcc/x86_64-unknown-linux-gnu/4.9.2/ -mtune=corei7 -march=x86-64 -g -Og
REM COMMAND_LINE
REM seed -75421192 104922171 705192484 -1461790592 -318257794 662652608 365191377 -653755913 602350925 133981059 -829855160 798388255
REM
REM S 3|1.8|5|6|7|30:31:32(qc=5)
REM O 2|1.5|12|13|15|20:21(qc=5)
REM Li 1|1.3|8|9|10|10U:20(qc=5)
REM Fe 3|2.2|2.0|1.0|8|9|10|40:41:32(qc=5)
REM 
CELL 1.54180    5.45444    5.45444    5.62466   90.00000   90.00000  120.00000
LATT -1
SFAC Li O  S  Fe 
Li     1 -0.0111620000000 -0.3050480000000 -0.1867560000000 1.0   0.02
Li     1  0.3050480000000  0.2938860000000 -0.1867560000000 1.0   0.02
Li     1 -0.2938860000000  0.0111620000000 -0.1867560000000 1.0   0.02
Li     1  0.3333330000000 -0.3333330000000  0.5806550000000 1.0  -0.07
O      2  0.6617250000000  0.6590090000000 -0.3532660000000 1.0   0.35
O      2 -0.6590090000000  0.0027160000000 -0.3532660000000 1.0   0.35
O      2 -0.0027160000000 -0.6617250000000 -0.3532660000000 1.0   0.35
O      2 -0.0000000000000  0.0000000000000  0.1458610000000 1.0   0.29
S      3  0.3333330000000 -0.3333330000000  0.1467640000000 1.0   0.28
Fe     4  0.3500960000000  0.0775650000000  0.3338000000000 1.0   3.42
Fe     4 -0.0775650000000  0.2725310000000  0.3338000000000 1.0   3.42
Fe     4 -0.2725310000000 -0.3500960000000  0.3338000000000 1.0   3.42
END
