TITL LFSO-Li4FeSO2-200910-081353-432d92 0.0112 444.464525 -8.51711151E+003 5.27802 6.08265 24 (P222) n - 1
REM
REM Run started: Thu, 10 Sep 2020 22:32:12 +0100 in /lustre/scratch/uccabz1/launch_tmp/launcher_2020-09-10-07-47-40-711169
REM CASTEP 20.1 from code version af48c487+ pr-geom-scf-spinfix Tue Jun 2 15:39:59 2020 +0100
REM Functional Perdew Burke Ernzerhof Relativity Koelling-Harmon Dispersion off
REM Cut-off 340.0000 eV Grid scale 1.7500 Gmax 16.5316 1/A FBSC none
REM MP grid 3 3 2 Offset 0.000 0.000 0.000 No. kpts 4 Spacing 0.07
REM Total runtime: 55345.8 s
REM Overall efficiency: 94.7857 %
REM
REM
REM
REM compiler GCC version 4.9.2
REM options -cpp -iprefix /lustre/shared/ucl/apps/gcc/4.9.2/bin/../lib/gcc/x86_64-unknown-linux-gnu/4.9.2/ -mtune=corei7 -march=x86-64 -g -Og
REM COMMAND_LINE
REM seed 1237721171 -476026553 1233945953 -1141346067 140429771 1429440445 1945115288 -177741765 -1305899878 1706075737 -223898171 -1565570019
REM
REM S 3|1.8|5|6|7|30:31:32(qc=5)
REM O 2|1.5|12|13|15|20:21(qc=5)
REM Li 1|1.3|8|9|10|10U:20(qc=5)
REM Fe 3|2.2|2.0|1.0|8|9|10|40:41:32(qc=5)
REM 
CELL 1.54180    7.04609    5.90569   10.68116   90.00000   90.00000   90.00000
LATT -1
SFAC Li O  S  Fe 
Li     1 -0.3207010000000  0.1378870000000  0.3267300000000 1.0  -0.04
Li     1 -0.3207010000000 -0.1378870000000 -0.3267300000000 1.0  -0.04
Li     1  0.3207010000000  0.1378870000000 -0.3267300000000 1.0  -0.04
Li     1  0.3207010000000 -0.1378870000000  0.3267300000000 1.0  -0.04
Li     1 -0.1955140000000 -0.4868630000000  0.1064150000000 1.0   0.02
Li     1 -0.1955140000000  0.4868630000000 -0.1064150000000 1.0   0.02
Li     1  0.1955140000000 -0.4868630000000 -0.1064150000000 1.0   0.02
Li     1  0.1955140000000  0.4868630000000  0.1064150000000 1.0   0.02
Li     1  0.3203590000000 -0.0452440000000 -0.1115160000000 1.0  -0.01
Li     1  0.3203590000000  0.0452440000000  0.1115160000000 1.0  -0.01
Li     1 -0.3203590000000 -0.0452440000000  0.1115160000000 1.0  -0.01
Li     1 -0.3203590000000  0.0452440000000 -0.1115160000000 1.0  -0.01
O      2 -0.2053840000000  0.2328510000000  0.0071750000000 1.0   0.09
O      2 -0.2053840000000 -0.2328510000000 -0.0071750000000 1.0   0.09
O      2  0.2053840000000  0.2328510000000 -0.0071750000000 1.0   0.09
O      2  0.2053840000000 -0.2328510000000  0.0071750000000 1.0   0.09
O      2 -0.5000000000000  0.0000000000000 -0.2371620000000 1.0   0.01
O      2 -0.5000000000000  0.0000000000000  0.2371620000000 1.0   0.01
S      3  0.0000000000000 -0.5000000000000 -0.2982410000000 1.0   0.09
S      3  0.0000000000000 -0.5000000000000  0.2982410000000 1.0   0.09
S      3  0.0000000000000  0.0000000000000  0.0000000000000 1.0   0.42
Fe     4  0.0000000000000  0.1601600000000  0.5000000000000 1.0   2.04
Fe     4 -0.0000000000000 -0.1601600000000 -0.5000000000000 1.0   2.04
Fe     4  0.0000000000000  0.5000000000000 -0.5000000000000 1.0   0.36
END
