TITL LFSO-Li4Fe2SO3-200911-000213-8b9d7e 0.0054 617.822829 -8.28248022E+003 15.7877 16.6758 20 (Pcc2) n - 1
REM
REM Run started: Fri, 11 Sep 2020 07:11:45 +0100 in /lustre/scratch/uccabz1/launch_tmp/launcher_2020-09-10-23-02-11-386891
REM CASTEP 20.1 from code version af48c487+ pr-geom-scf-spinfix Tue Jun 2 15:39:59 2020 +0100
REM Functional Perdew Burke Ernzerhof Relativity Koelling-Harmon Dispersion off
REM Cut-off 340.0000 eV Grid scale 1.7500 Gmax 16.5316 1/A FBSC none
REM MP grid 5 2 1 Offset 0.000 0.000 0.000 No. kpts 3 Spacing 0.07
REM Total runtime: 31357.8 s
REM Overall efficiency: 97.5 %
REM
REM
REM
REM compiler GCC version 4.9.2
REM options -cpp -iprefix /lustre/shared/ucl/apps/gcc/4.9.2/bin/../lib/gcc/x86_64-unknown-linux-gnu/4.9.2/ -mtune=corei7 -march=x86-64 -g -Og
REM COMMAND_LINE
REM seed 1498233630 1449768366 37488979 -1134019848 -1421795067 834159320 732744995 -335628797 996042767 1635217830 -1679394186 -1867596354
REM
REM S 3|1.8|5|6|7|30:31:32(qc=5)
REM O 2|1.5|12|13|15|20:21(qc=5)
REM Li 1|1.3|8|9|10|10U:20(qc=5)
REM Fe 3|2.2|2.0|1.0|8|9|10|40:41:32(qc=5)
REM 
CELL 1.54180    3.25270    8.22037   23.10617   90.00000   90.00000   90.00000
LATT -1
SFAC Li O  S  Fe 
Li     1 -0.2407070000000  0.0782870000000  0.3652160000000 1.0   0.00
Li     1  0.2407070000000 -0.0782870000000  0.3652160000000 1.0   0.00
Li     1 -0.2407070000000 -0.0782870000000 -0.1347840000000 1.0   0.00
Li     1  0.2407070000000  0.0782870000000 -0.1347840000000 1.0   0.00
Li     1  0.1991300000000  0.2413390000000  0.2674350000000 1.0  -0.13
Li     1 -0.1991300000000 -0.2413390000000  0.2674350000000 1.0  -0.13
Li     1  0.1991300000000 -0.2413390000000 -0.2325650000000 1.0  -0.13
Li     1 -0.1991300000000  0.2413390000000 -0.2325650000000 1.0  -0.13
O      2  0.2712900000000 -0.1663150000000 -0.1503340000000 1.0   0.11
O      2 -0.2712900000000  0.1663150000000 -0.1503340000000 1.0   0.11
O      2  0.2712900000000  0.1663150000000  0.3496660000000 1.0   0.11
O      2 -0.2712900000000 -0.1663150000000  0.3496660000000 1.0   0.11
O      2  0.0000000000000 -0.5000000000000 -0.0955760000000 1.0   0.49
O      2  0.0000000000000 -0.5000000000000 -0.5955760000000 1.0   0.49
S      3  0.0000000000000  0.5000000000000 -0.2220660000000 1.0   0.32
S      3  0.0000000000000  0.5000000000000  0.2779340000000 1.0   0.32
Fe     4 -0.3878160000000 -0.3680100000000 -0.1367870000000 1.0   3.56
Fe     4  0.3878160000000  0.3680100000000 -0.1367870000000 1.0   3.56
Fe     4 -0.3878160000000  0.3680100000000  0.3632130000000 1.0   3.56
Fe     4  0.3878160000000 -0.3680100000000  0.3632130000000 1.0   3.56
END
