TITL LFSO-Li4Fe2S3O2-200911-040937-457a56 -0.0196 319.382869 -8.62598237E+003 10.2541 10.8798 22 (P3) n - 1
REM
REM Run started: Fri, 11 Sep 2020 20:22:43 +0100 in /lustre/scratch/uccabz1/launch_tmp/launcher_2020-09-11-03-09-32-944106
REM CASTEP 20.1 from code version af48c487+ pr-geom-scf-spinfix Tue Jun 2 15:39:59 2020 +0100
REM Functional Perdew Burke Ernzerhof Relativity Koelling-Harmon Dispersion off
REM Cut-off 340.0000 eV Grid scale 1.7500 Gmax 16.5316 1/A FBSC none
REM MP grid 3 3 3 Offset 0.000 0.000 0.000 No. kpts 8 Spacing 0.07
REM Total runtime: 59372.1 s
REM Overall efficiency: 93.7273 %
REM
REM
REM
REM compiler GCC version 4.9.2
REM options -cpp -iprefix /lustre/shared/ucl/apps/gcc/4.9.2/bin/../lib/gcc/x86_64-unknown-linux-gnu/4.9.2/ -mtune=corei7 -march=x86-64 -g -Og
REM COMMAND_LINE
REM seed -1514596097 -1465235767 884794007 -1919105222 913853210 -769402749 -1853899155 465653728 -973457531 2117648711 -1350904492 -2054016013
REM
REM S 3|1.8|5|6|7|30:31:32(qc=5)
REM O 2|1.5|12|13|15|20:21(qc=5)
REM Li 1|1.3|8|9|10|10U:20(qc=5)
REM Fe 3|2.2|2.0|1.0|8|9|10|40:41:32(qc=5)
REM 
CELL 1.54180    7.32728    7.32728    6.86902   90.00000   90.00000  120.00000
LATT -1
SFAC Li O  S  Fe 
Li     1  0.1258220000000  0.4257700000000 -0.5584620000000 1.0   0.01
Li     1  0.2999480000000 -0.1258220000000 -0.5584620000000 1.0   0.01
Li     1 -0.4257700000000 -0.2999480000000 -0.5584620000000 1.0   0.01
Li     1 -0.1382370000000 -0.2138520000000  0.1887460000000 1.0  -0.01
Li     1 -0.0756150000000  0.1382370000000  0.1887460000000 1.0  -0.01
Li     1  0.2138520000000  0.0756150000000  0.1887460000000 1.0  -0.01
Li     1 -0.0000000000000  0.0000000000000 -0.2947670000000 1.0  -0.05
Li     1 -0.3333330000000  0.3333330000000  0.1864810000000 1.0   0.03
O      2 -0.3323200000000 -0.1194240000000  0.2196870000000 1.0   0.21
O      2  0.2128960000000  0.3323200000000  0.2196870000000 1.0   0.21
O      2  0.1194240000000 -0.2128960000000  0.2196870000000 1.0   0.21
O      2 -0.0000000000000  0.0000000000000 -0.0269210000000 1.0   0.18
S      3  0.4544100000000  0.0548140000000 -0.0328430000000 1.0  -0.00
S      3 -0.3995970000000 -0.4544100000000 -0.0328430000000 1.0  -0.00
S      3 -0.0548140000000  0.3995970000000 -0.0328430000000 1.0  -0.00
S      3 -0.0260440000000 -0.3474790000000 -0.3666300000000 1.0  -0.02
S      3 -0.3214350000000  0.0260440000000 -0.3666300000000 1.0  -0.02
S      3  0.3474790000000  0.3214350000000 -0.3666300000000 1.0  -0.02
Fe     4  0.1034980000000 -0.2433800000000 -0.0435840000000 1.0   2.85
Fe     4 -0.3468780000000 -0.1034980000000 -0.0435840000000 1.0   2.85
Fe     4  0.2433800000000  0.3468780000000 -0.0435840000000 1.0   2.85
Fe     4 -0.3333330000000  0.3333330000000 -0.2212120000000 1.0   0.96
END
