TITL LFSO-Li3FeSO2-200911-162037-9e165d -0.0315 299.100144 -7.92901547E+003 9.40499 10.1792 21 (P3) n - 1
REM
REM Run started: Sat, 12 Sep 2020 03:12:33 +0100 in /lustre/scratch/uccabz1/launch_tmp/launcher_2020-09-11-15-20-36-275958
REM CASTEP 20.1 from code version af48c487+ pr-geom-scf-spinfix Tue Jun 2 15:39:59 2020 +0100
REM Functional Perdew Burke Ernzerhof Relativity Koelling-Harmon Dispersion off
REM Cut-off 340.0000 eV Grid scale 1.7500 Gmax 16.5316 1/A FBSC none
REM MP grid 5 2 2 Offset 0.000 0.000 0.000 No. kpts 10 Spacing 0.07
REM Total runtime: 42950.4 s
REM Overall efficiency: 84.0769 %
REM
REM
REM
REM compiler GCC version 4.9.2
REM options -cpp -iprefix /lustre/shared/ucl/apps/gcc/4.9.2/bin/../lib/gcc/x86_64-unknown-linux-gnu/4.9.2/ -mtune=corei7 -march=x86-64 -g -Og
REM COMMAND_LINE
REM seed 79681245 563321541 301971514 -426286916 819546702 -203569724 814536821 822562123 -1007682102 -525324783 -1516870962 -31825979
REM
REM S 3|1.8|5|6|7|30:31:32(qc=5)
REM O 2|1.5|12|13|15|20:21(qc=5)
REM Li 1|1.3|8|9|10|10U:20(qc=5)
REM Fe 3|2.2|2.0|1.0|8|9|10|40:41:32(qc=5)
REM 
CELL 1.54180    3.51155    9.91730    9.91730  120.00000   90.00000   90.00000
LATT -1
SFAC Li O  S  Fe 
Li     1  0.5547370000000  0.3847690000000  0.5356440000000 1.0   0.01
Li     1  0.5547370000000  0.1508740000000 -0.3847690000000 1.0   0.01
Li     1  0.5547370000000 -0.5356440000000 -0.1508740000000 1.0   0.01
Li     1  0.0293030000000 -0.4016580000000 -0.3198700000000 1.0  -0.01
Li     1  0.0293030000000  0.0817880000000  0.4016580000000 1.0  -0.01
Li     1  0.0293030000000  0.3198700000000 -0.0817880000000 1.0  -0.01
Li     1  0.5274530000000  0.1290510000000  0.2396300000000 1.0   0.05
Li     1  0.5274530000000  0.1105790000000 -0.1290510000000 1.0   0.05
Li     1  0.5274530000000 -0.2396300000000 -0.1105790000000 1.0   0.05
O      2 -0.0344810000000  0.5415730000000  0.0988850000000 1.0   0.29
O      2 -0.0344810000000 -0.4426880000000 -0.5415730000000 1.0   0.29
O      2 -0.0344810000000 -0.0988850000000  0.4426880000000 1.0   0.29
O      2 -0.4707080000000  0.1737210000000  0.4405960000000 1.0  -0.04
O      2 -0.4707080000000  0.2668750000000 -0.1737210000000 1.0  -0.04
O      2 -0.4707080000000 -0.4405960000000 -0.2668750000000 1.0  -0.04
S      3  0.0257630000000 -0.1294100000000  0.1103530000000 1.0   0.07
S      3  0.0257630000000  0.2397640000000  0.1294100000000 1.0   0.07
S      3  0.0257630000000 -0.1103530000000 -0.2397640000000 1.0   0.07
Fe     4 -0.0266410000000 -0.2381440000000 -0.4896610000000 1.0   2.76
Fe     4 -0.0266410000000 -0.2515170000000  0.2381440000000 1.0   2.76
Fe     4 -0.0266410000000  0.4896610000000  0.2515170000000 1.0   2.76
END
