TITL LFSO-Li2Fe3S2O2-200921-035555-85af82 0.0627 266.297395 -8.94656176E+003 16.9925 17.5604 18 (Fmmm) n - 1
REM
REM Run started: Mon, 21 Sep 2020 11:39:54 +0100 in /lustre/scratch/uccabz1/launch_tmp/launcher_2020-09-21-02-55-53-527888
REM CASTEP 20.1 from code version af48c487+ pr-geom-scf-spinfix Tue Jun 2 15:39:59 2020 +0100
REM Functional Perdew Burke Ernzerhof Relativity Koelling-Harmon Dispersion off
REM Cut-off 340.0000 eV Grid scale 1.7500 Gmax 16.5316 1/A FBSC none
REM MP grid 3 3 3 Offset 0.000 0.000 0.000 No. kpts 8 Spacing 0.07
REM Total runtime: 30946.3 s
REM Overall efficiency: 97.8 %
REM
REM
REM
REM compiler GCC version 4.9.2
REM options -cpp -iprefix /lustre/shared/ucl/apps/gcc/4.9.2/bin/../lib/gcc/x86_64-unknown-linux-gnu/4.9.2/ -mtune=corei7 -march=x86-64 -g -Og
REM COMMAND_LINE
REM seed -1441682873 -194577300 -1643247562 -577865817 -348742281 -419289938 -1140449015 1323437580 1753502144 -502422643 1780665691 -654228334
REM
REM S 3|1.8|5|6|7|30:31:32(qc=5)
REM O 2|1.5|12|13|15|20:21(qc=5)
REM Li 1|1.3|8|9|10|10U:20(qc=5)
REM Fe 3|2.2|2.0|1.0|8|9|10|40:41:32(qc=5)
REM 
CELL 1.54180    6.17252    6.17252    8.20053  111.22581  111.22581   92.17819
LATT -1
SFAC Li O  S  Fe 
Li     1 -0.0086930000000  0.2967680000000 -0.0003180000000 1.0  -0.01
Li     1  0.0083750000000 -0.2970850000000 -0.0003180000000 1.0  -0.01
Li     1  0.2970850000000 -0.0083750000000  0.0003180000000 1.0  -0.01
Li     1 -0.2967680000000  0.0086930000000  0.0003180000000 1.0  -0.01
O      2  0.2810030000000 -0.0807980000000  0.2003200000000 1.0   0.19
O      2 -0.0806830000000  0.2811180000000  0.2003200000000 1.0   0.19
O      2 -0.2811180000000  0.0806820000000 -0.2003200000000 1.0   0.19
O      2  0.0807980000000 -0.2810030000000 -0.2003200000000 1.0   0.19
S      3 -0.1559750000000 -0.1563850000000  0.2692200000000 1.0   0.10
S      3  0.4251950000000 -0.5743950000000  0.2692200000000 1.0   0.10
S      3  0.5743940000000 -0.4251960000000 -0.2692200000000 1.0   0.10
S      3  0.1563850000000  0.1559750000000 -0.2692200000000 1.0   0.10
Fe     4  0.2017860000000  0.4758540000000 -0.3219620000000 1.0   2.45
Fe     4 -0.5237480000000  0.2021840000000 -0.3219620000000 1.0   2.45
Fe     4 -0.2021840000000  0.5237480000000  0.3219620000000 1.0   2.45
Fe     4 -0.4758540000000 -0.2017860000000  0.3219620000000 1.0   2.45
Fe     4 -0.1734830000000 -0.1734830000000 -0.3469660000000 1.0   3.06
Fe     4  0.1734830000000  0.1734830000000  0.3469660000000 1.0   3.06
END
