TITL LFSO-LiFe3SO4-200909-024722-f171d9 -0.0220 257.239953 -9.69065311E+003 19.3619 19.7030 18 (Pmn21) n - 1
REM
REM Run started: Wed, 09 Sep 2020 05:47:04 +0100 in /lustre/scratch/uccabz1/launch_tmp/launcher_2020-09-09-01-47-20-507181
REM CASTEP 20.1 from code version af48c487+ pr-geom-scf-spinfix Tue Jun 2 15:39:59 2020 +0100
REM Functional Perdew Burke Ernzerhof Relativity Koelling-Harmon Dispersion off
REM Cut-off 340.0000 eV Grid scale 1.7500 Gmax 16.5316 1/A FBSC none
REM MP grid 4 3 2 Offset 0.000 0.000 0.000 No. kpts 4 Spacing 0.07
REM Total runtime: 10917 s
REM Overall efficiency: 96.25 %
REM
REM
REM
REM compiler GCC version 4.9.2
REM options -cpp -iprefix /lustre/shared/ucl/apps/gcc/4.9.2/bin/../lib/gcc/x86_64-unknown-linux-gnu/4.9.2/ -mtune=corei7 -march=x86-64 -g -Og
REM COMMAND_LINE
REM seed -1785195856 -313197204 -1175887694 -1167536722 -1454357733 -79248234 -1030314583 -1440880276 730174600 -1694806047 2100694550 -457468074
REM
REM S 3|1.8|5|6|7|30:31:32(qc=5)
REM O 2|1.5|12|13|15|20:21(qc=5)
REM Li 1|1.3|8|9|10|10U:20(qc=5)
REM Fe 3|2.2|2.0|1.0|8|9|10|40:41:32(qc=5)
REM 
CELL 1.54180    3.85260    5.85807   11.39804   90.00000   90.00000   90.00000
LATT -1
SFAC Li O  S  Fe 
Li     1  0.0597970000000  0.0000000000000  0.2134250000000 1.0  -0.01
Li     1 -0.0597970000000  0.5000000000000 -0.2865750000000 1.0  -0.01
O      2 -0.1612690000000 -0.2642290000000  0.1287780000000 1.0   0.26
O      2  0.1612690000000 -0.2357710000000 -0.3712220000000 1.0   0.26
O      2  0.1612690000000  0.2357710000000 -0.3712220000000 1.0   0.26
O      2 -0.1612690000000  0.2642290000000  0.1287780000000 1.0   0.26
O      2  0.1910290000000 -0.2796750000000  0.3187660000000 1.0   0.31
O      2 -0.1910290000000 -0.2203250000000 -0.1812340000000 1.0   0.31
O      2 -0.1910290000000  0.2203250000000 -0.1812340000000 1.0   0.31
O      2  0.1910290000000  0.2796750000000  0.3187660000000 1.0   0.31
S      3  0.3244870000000  0.5000000000000 -0.0476910000000 1.0   0.15
S      3 -0.3244870000000  0.0000000000000  0.4523090000000 1.0   0.15
Fe     4 -0.1762460000000  0.2840230000000 -0.0262110000000 1.0   2.78
Fe     4  0.1762460000000  0.2159770000000  0.4737890000000 1.0   2.78
Fe     4  0.1762460000000 -0.2159770000000  0.4737890000000 1.0   2.78
Fe     4 -0.1762460000000 -0.2840230000000 -0.0262110000000 1.0   2.78
Fe     4  0.0017330000000  0.0000000000000 -0.2719000000000 1.0   2.85
Fe     4 -0.0017330000000  0.5000000000000  0.2281000000000 1.0   2.85
END
