TITL LFSO-Li4FeS2O-200910-112840-eaa57e -0.0221 146.583990 -2.70722247E+003 3.93804 3.97733 8 (Cmmm) n - 1
REM
REM Run started: Thu, 10 Sep 2020 11:49:07 +0100 in /lustre/scratch/uccabz1/launch_tmp/launcher_2020-09-10-10-28-38-108828
REM CASTEP 20.1 from code version af48c487+ pr-geom-scf-spinfix Tue Jun 2 15:39:59 2020 +0100
REM Functional Perdew Burke Ernzerhof Relativity Koelling-Harmon Dispersion off
REM Cut-off 340.0000 eV Grid scale 1.7500 Gmax 16.5316 1/A FBSC none
REM MP grid 4 3 3 Offset 0.000 0.000 0.000 No. kpts 8 Spacing 0.07
REM Total runtime: 1493.83 s
REM Overall efficiency: 91.6667 %
REM
REM
REM
REM compiler GCC version 4.9.2
REM options -cpp -iprefix /lustre/shared/ucl/apps/gcc/4.9.2/bin/../lib/gcc/x86_64-unknown-linux-gnu/4.9.2/ -mtune=corei7 -march=x86-64 -g -Og
REM COMMAND_LINE
REM seed 776339743 -1029468601 1574023929 -1625262365 368200192 -2087891027 -2054865393 -558155219 -1290684369 -1003023205 1217996497 -1665850584
REM
REM S 3|1.8|5|6|7|30:31:32(qc=5)
REM O 2|1.5|12|13|15|20:21(qc=5)
REM Li 1|1.3|8|9|10|10U:20(qc=5)
REM Fe 3|2.2|2.0|1.0|8|9|10|40:41:32(qc=5)
REM 
CELL 1.54180    3.91237    6.19011    6.19011  102.09603   90.00000   90.00000
LATT -1
SFAC Li O  S  Fe 
Li     1  0.0817540000000  0.1792890000000  0.4572040000000 1.0  -0.04
Li     1  0.0817540000000 -0.1792890000000 -0.4572040000000 1.0  -0.04
Li     1  0.0817540000000 -0.4572040000000 -0.1792890000000 1.0  -0.04
Li     1  0.0817540000000  0.4572040000000  0.1792890000000 1.0  -0.04
O      2  0.0819710000000 -0.5000000000000 -0.5000000000000 1.0   0.18
S      3 -0.4181170000000  1.0000000000000  0.5000000000000 1.0   0.16
S      3 -0.4181170000000 -0.5000000000000  0.0000000000000 1.0   0.16
Fe     4  0.5818160000000 -0.5000000000000 -0.5000000000000 1.0   3.61
END
