TITL LFSO-Li3Fe3S5O-200928-195633-f2e5e2 0.5290 462.871735 -10295.89787618 -0.141113 7.88082 24 (P21) n - 1
REM
REM Run started: Thu, 01 Oct 2020 00:23:29 +0100 in /lustre/scratch/uccabz1/launch_tmp/launcher_2020-09-30-23-23-22-296245
REM CASTEP 20.1 from code version af48c487+ pr-geom-scf-spinfix Tue Jun 2 15:39:59 2020 +0100
REM Functional Perdew Burke Ernzerhof Relativity Koelling-Harmon Dispersion off
REM Cut-off 340.0000 eV Grid scale 1.7500 Gmax 16.5316 1/A FBSC none
REM MP grid 5 2 1 Offset 0.000 0.000 0.000 No. kpts 5 Spacing 0.07
REM Total runtime: 108953 s
REM Overall efficiency: 98.4444 %
REM
REM
REM
REM compiler GCC version 4.9.2
REM options -cpp -iprefix /scratch/UCL/applications/gcc/4.9.2/bin/../lib/gcc/x86_64-unknown-linux-gnu/4.9.2/ -mtune=corei7 -march=x86-64 -g -O2
REM COMMAND_LINE
REM seed -1914925674 195218763 102367518 1471168178 -1998452929 1851196591 629101605 108947036 18733462 551926098 -691673666 -63009559
REM
REM S 3|1.8|5|6|7|30:31:32(qc=5)
REM O 2|1.5|12|13|15|20:21(qc=5)
REM Li 1|1.3|8|9|10|10U:20(qc=5)
REM Fe 3|2.2|2.0|1.0|8|9|10|40:41:32(qc=5)
REM 
CELL 1.54180    3.53608    8.76814   15.26483   90.00000   90.00000  102.04042
LATT -1
SFAC Li O  S  Fe 
Li     1  0.2842420000000  0.0712890000000  0.2696140000000 1.0  -0.00
Li     1 -0.2842420000000 -0.0712890000000 -0.2303860000000 1.0  -0.00
Li     1  0.5575300000000 -0.3840960000000 -0.3291080000000 1.0  -0.01
Li     1 -0.5575300000000  0.3840960000000  0.1708920000000 1.0  -0.01
Li     1  0.6334200000000  0.0930280000000  0.5037460000000 1.0   0.00
Li     1 -0.6334200000000 -0.0930280000000  0.0037460000000 1.0   0.00
O      2  0.2746400000000 -0.2794620000000 -0.0513700000000 1.0  -0.02
O      2 -0.2746400000000  0.2794620000000 -0.5513700000000 1.0  -0.02
S      3 -0.1307470000000 -0.4605540000000  0.2889180000000 1.0  -0.01
S      3  0.1307470000000  0.4605540000000 -0.2110820000000 1.0  -0.01
S      3  0.1374630000000 -0.1939380000000 -0.3157760000000 1.0  -0.00
S      3 -0.1374630000000  0.1939380000000  0.1842240000000 1.0  -0.00
S      3 -0.3911320000000  0.4158220000000 -0.0051500000000 1.0  -0.01
S      3  0.3911320000000 -0.4158220000000  0.4948500000000 1.0  -0.01
S      3 -0.4487990000000 -0.1140190000000  0.3720460000000 1.0  -0.01
S      3  0.4487990000000  0.1140190000000 -0.1279540000000 1.0  -0.01
S      3 -0.0791780000000  0.0708140000000  0.0650720000000 1.0   0.01
S      3  0.0791780000000 -0.0708140000000 -0.4349280000000 1.0   0.01
Fe     4 -0.0016740000000  0.2135740000000 -0.0552390000000 1.0   0.27
Fe     4  0.0016740000000 -0.2135740000000  0.4447610000000 1.0   0.27
Fe     4 -0.4215550000000  0.3642530000000 -0.1451870000000 1.0  -0.04
Fe     4  0.4215550000000 -0.3642530000000  0.3548130000000 1.0  -0.04
Fe     4 -0.1647460000000 -0.5263140000000  0.4312220000000 1.0  -0.03
Fe     4  0.1647460000000  0.5263140000000 -0.0687780000000 1.0  -0.03
END
