TITL LFSO-Li3Fe3S5O-200929-105106-85b51e -0.0534 178.418274 -5.14707568E+003 9.99792 10.1879 12 (R32) n - 1
REM
REM Run started: Tue, 29 Sep 2020 14:10:29 +0100 in /lustre/scratch/uccabz1/launch_tmp/launcher_2020-09-29-09-51-04-917297
REM CASTEP 20.1 from code version af48c487+ pr-geom-scf-spinfix Tue Jun 2 15:39:59 2020 +0100
REM Functional Perdew Burke Ernzerhof Relativity Koelling-Harmon Dispersion off
REM Cut-off 340.0000 eV Grid scale 1.7500 Gmax 16.5316 1/A FBSC none
REM MP grid 3 3 4 Offset 0.000 0.000 0.000 No. kpts 14 Spacing 0.07
REM Total runtime: 12197.7 s
REM Overall efficiency: 97.1429 %
REM
REM
REM
REM compiler GCC version 4.9.2
REM options -cpp -iprefix /lustre/shared/ucl/apps/gcc/4.9.2/bin/../lib/gcc/x86_64-unknown-linux-gnu/4.9.2/ -mtune=corei7 -march=x86-64 -g -Og
REM COMMAND_LINE
REM seed 245627656 -192503133 1085602565 7849338 717599742 -275499052 603778275 -298801353 -1103340136 -1705199301 479786823 -1723854316
REM
REM S 3|1.8|5|6|7|30:31:32(qc=5)
REM O 2|1.5|12|13|15|20:21(qc=5)
REM Li 1|1.3|8|9|10|10U:20(qc=5)
REM Fe 3|2.2|2.0|1.0|8|9|10|40:41:32(qc=5)
REM 
CELL 1.54180    6.73024    6.73024    5.98210   55.76899   55.76899   60.00000
LATT -1
SFAC Li O  S  Fe 
Li     1 -0.1733740000000 -0.4181620000000 -0.4706050000000 1.0  -0.03
Li     1  0.0621410000000 -0.1733740000000 -0.4706050000000 1.0  -0.03
Li     1 -0.4181620000000  0.0621410000000 -0.4706050000000 1.0  -0.03
O      2  0.3230540000000  0.3230540000000  0.0308380000000 1.0   0.29
S      3  0.2350010000000 -0.5860630000000  0.5297580000000 1.0   0.20
S      3 -0.1786950000000  0.2350010000000  0.5297580000000 1.0   0.20
S      3 -0.5860630000000 -0.1786950000000  0.5297580000000 1.0   0.20
S      3 -0.0328080000000 -0.0328080000000  0.0984250000000 1.0   0.17
S      3 -0.3202320000000 -0.3202320000000 -0.0393050000000 1.0   0.16
Fe     4  0.3240310000000 -0.3879050000000  0.0294650000000 1.0   2.95
Fe     4  0.0344090000000  0.3240310000000  0.0294650000000 1.0   2.95
Fe     4 -0.3879050000000  0.0344090000000  0.0294650000000 1.0   2.95
END
