TITL LFSO-LiFe3S2O3-200909-174955-889a17 -0.0009 293.286364 -9.42305912E+003 -12.0123 12.5625 18 (P3) n - 1
REM
REM Run started: Thu, 10 Sep 2020 16:10:26 +0100 in /lustre/scratch/uccabz1/launch_tmp/launcher_2020-09-10-10-39-43-850219
REM CASTEP 20.1 from code version af48c487+ pr-geom-scf-spinfix Tue Jun 2 15:39:59 2020 +0100
REM Functional Perdew Burke Ernzerhof Relativity Koelling-Harmon Dispersion off
REM Cut-off 340.0000 eV Grid scale 1.7500 Gmax 16.5316 1/A FBSC none
REM MP grid 3 3 2 Offset 0.000 0.000 0.000 No. kpts 5 Spacing 0.07
REM Total runtime: 79432.3 s
REM Overall efficiency: 83.6364 %
REM
REM
REM
REM compiler GCC version 4.9.2
REM options -cpp -iprefix /lustre/shared/ucl/apps/gcc/4.9.2/bin/../lib/gcc/x86_64-unknown-linux-gnu/4.9.2/ -mtune=corei7 -march=x86-64 -g -Og
REM COMMAND_LINE
REM seed -183458494 109859902 -1984834968 -1421271255 1112857347 1537892564 -333612072 -1970501977 -1883133822 1617132024 -1506699251 48361200
REM
REM S 3|1.8|5|6|7|30:31:32(qc=5)
REM O 2|1.5|12|13|15|20:21(qc=5)
REM Li 1|1.3|8|9|10|10U:20(qc=5)
REM Fe 3|2.2|2.0|1.0|8|9|10|40:41:32(qc=5)
REM 
CELL 1.54180    6.12740    6.12740    9.02004   90.00000   90.00000  120.00000
LATT -1
SFAC Li O  S  Fe 
Li     1 -0.3333330000000  0.3333330000000 -0.4069430000000 1.0  -0.03
Li     1  0.0000000000000 -0.0000000000000  0.5052480000000 1.0   0.03
O      2 -0.3205000000000  0.1048500000000 -0.1620370000000 1.0  -0.00
O      2 -0.1048500000000 -0.4253510000000 -0.1620370000000 1.0  -0.00
O      2  0.4253510000000  0.3205000000000 -0.1620370000000 1.0  -0.00
O      2 -0.1452270000000 -0.3641240000000 -0.5442160000000 1.0  -0.20
O      2  0.3641240000000  0.2188970000000 -0.5442160000000 1.0  -0.20
O      2 -0.2188970000000  0.1452270000000 -0.5442160000000 1.0  -0.20
S      3  0.2615990000000 -0.0718400000000  0.1347610000000 1.0   0.01
S      3  0.0718400000000  0.3334380000000  0.1347610000000 1.0   0.01
S      3 -0.3334380000000 -0.2615990000000  0.1347610000000 1.0   0.01
S      3 -0.3333330000000  0.3333330000000 -0.1091130000000 1.0   0.03
Fe     4 -0.4991050000000  0.0693070000000  0.3341450000000 1.0  -2.65
Fe     4 -0.0693070000000 -0.5684130000000  0.3341450000000 1.0  -2.65
Fe     4  0.5684130000000  0.4991050000000  0.3341450000000 1.0  -2.65
Fe     4 -0.3316850000000  0.0860200000000  0.0903160000000 1.0  -1.16
Fe     4 -0.0860200000000 -0.4177060000000  0.0903160000000 1.0  -1.16
Fe     4  0.4177060000000  0.3316850000000  0.0903160000000 1.0  -1.16
END
