TITL LFSO-Li4Fe2SO4-200910-130305-b7ed03 -0.1576 437.626966 -9.16286811E+003 12.0032 12.8497 22 (C2221) n - 1
REM
REM Run started: Thu, 10 Sep 2020 21:09:45 +0100 in /lustre/scratch/uccabz1/launch_tmp/launcher_2020-09-10-12-03-03-418519
REM CASTEP 20.1 from code version af48c487+ pr-geom-scf-spinfix Tue Jun 2 15:39:59 2020 +0100
REM Functional Perdew Burke Ernzerhof Relativity Koelling-Harmon Dispersion off
REM Cut-off 340.0000 eV Grid scale 1.7500 Gmax 16.5316 1/A FBSC none
REM MP grid 3 3 2 Offset 0.000 0.000 0.000 No. kpts 4 Spacing 0.07
REM Total runtime: 34327.6 s
REM Overall efficiency: 98.1667 %
REM
REM
REM
REM compiler GCC version 4.9.2
REM options -cpp -iprefix /lustre/shared/ucl/apps/gcc/4.9.2/bin/../lib/gcc/x86_64-unknown-linux-gnu/4.9.2/ -mtune=corei7 -march=x86-64 -g -Og
REM COMMAND_LINE
REM seed -922124379 -950035633 -45190315 -1502717054 -130631894 1758874593 990690321 1073007064 -2101686788 1390845822 -1467479692 -855497023
REM
REM S 3|1.8|5|6|7|30:31:32(qc=5)
REM O 2|1.5|12|13|15|20:21(qc=5)
REM Li 1|1.3|8|9|10|10U:20(qc=5)
REM Fe 3|2.2|2.0|1.0|8|9|10|40:41:32(qc=5)
REM 
CELL 1.54180    7.30289    7.30289   11.44051   90.00000   90.00000  134.17228
LATT -1
SFAC Li O  S  Fe 
Li     1  0.0109090000000  0.1364480000000  0.0773490000000 1.0   0.02
Li     1 -0.0109090000000 -0.1364480000000 -0.4226510000000 1.0   0.02
Li     1 -0.1364480000000 -0.0109090000000  0.4226510000000 1.0   0.02
Li     1  0.1364480000000  0.0109090000000 -0.0773490000000 1.0   0.02
Li     1  0.3674200000000 -0.0572540000000  0.3870150000000 1.0  -0.05
Li     1 -0.3674200000000  0.0572540000000 -0.1129850000000 1.0  -0.05
Li     1  0.0572540000000 -0.3674200000000  0.1129850000000 1.0  -0.05
Li     1 -0.0572540000000  0.3674200000000 -0.3870150000000 1.0  -0.05
O      2 -0.0577260000000  0.1091010000000 -0.0909200000000 1.0   0.19
O      2  0.0577260000000 -0.1091010000000  0.4090800000000 1.0   0.19
O      2 -0.1091010000000  0.0577260000000 -0.4090800000000 1.0   0.19
O      2  0.1091010000000 -0.0577260000000  0.0909200000000 1.0   0.19
O      2  0.4948170000000  0.1754500000000 -0.0513590000000 1.0   0.25
O      2 -0.4948170000000 -0.1754500000000  0.4486410000000 1.0   0.25
O      2 -0.1754500000000 -0.4948170000000 -0.4486410000000 1.0   0.25
O      2  0.1754500000000  0.4948170000000  0.0513590000000 1.0   0.25
S      3  0.3034960000000 -0.3034960000000 -0.2500000000000 1.0   0.09
S      3 -0.3034960000000  0.3034960000000  0.2500000000000 1.0   0.09
Fe     4 -0.1539430000000  0.5609280000000  0.4052200000000 1.0   2.54
Fe     4  0.1539430000000 -0.5609280000000 -0.0947800000000 1.0   2.54
Fe     4 -0.5609280000000  0.1539430000000  0.0947800000000 1.0   2.54
Fe     4  0.5609280000000 -0.1539430000000 -0.4052200000000 1.0   2.54
END
