TITL LFSO-Li4Fe2S3O2-200911-081404-137719 0.0048 351.942864 -8.62718953E+003 -0.528229E-01 0.850375E-01 22 (R3) n - 1
REM
REM Run started: Sat, 12 Sep 2020 12:46:52 +0100 in /lustre/scratch/uccabz1/launch_tmp/launcher_2020-09-12-10-39-03-128381
REM CASTEP 20.1 from code version af48c487+ pr-geom-scf-spinfix Tue Jun 2 15:39:59 2020 +0100
REM Functional Perdew Burke Ernzerhof Relativity Koelling-Harmon Dispersion off
REM Cut-off 340.0000 eV Grid scale 1.7500 Gmax 16.5316 1/A FBSC none
REM MP grid 3 3 3 Offset 0.000 0.000 0.000 No. kpts 6 Spacing 0.07
REM Total runtime: 92619.2 s
REM Overall efficiency: 93 %
REM
REM
REM
REM compiler GCC version 4.9.2
REM options -cpp -iprefix /lustre/shared/ucl/apps/gcc/4.9.2/bin/../lib/gcc/x86_64-unknown-linux-gnu/4.9.2/ -mtune=corei7 -march=x86-64 -g -Og
REM COMMAND_LINE
REM seed 900304140 -412457764 929544050 536201237 1068888848 1552585943 -1331193448 2142453415 -678767296 -1474185997 311724829 -614405521
REM
REM S 3|1.8|5|6|7|30:31:32(qc=5)
REM O 2|1.5|12|13|15|20:21(qc=5)
REM Li 1|1.3|8|9|10|10U:20(qc=5)
REM Fe 3|2.2|2.0|1.0|8|9|10|40:41:32(qc=5)
REM 
CELL 1.54180    7.89563    7.89563    7.95456   60.24480   60.24480   60.00000
LATT -1
SFAC Li O  S  Fe 
Li     1  0.5435580000000 -0.3370650000000 -0.2100310000000 1.0  -0.00
Li     1 -0.3370650000000  0.0035380000000 -0.2100310000000 1.0  -0.00
Li     1  0.0035380000000  0.5435580000000 -0.2100310000000 1.0  -0.00
Li     1  0.5173980000000  0.0160240000000  0.3591330000000 1.0  -0.00
Li     1  0.0160240000000  0.1074460000000  0.3591330000000 1.0  -0.00
Li     1  0.1074460000000  0.5173980000000  0.3591330000000 1.0  -0.00
Li     1  0.0732000000000  0.0732000000000 -0.2196000000000 1.0  -0.00
Li     1 -0.1828600000000 -0.1828600000000  0.5485790000000 1.0   0.00
O      2  0.1002010000000 -0.3350550000000  0.4816890000000 1.0   0.00
O      2 -0.3350550000000 -0.2468340000000  0.4816890000000 1.0   0.00
O      2 -0.2468340000000  0.1002010000000  0.4816890000000 1.0   0.00
O      2 -0.2841170000000 -0.2841170000000 -0.1476490000000 1.0   0.00
S      3  0.2059880000000 -0.2492030000000 -0.2578730000000 1.0   0.00
S      3 -0.2492030000000  0.3010890000000 -0.2578730000000 1.0   0.00
S      3  0.3010890000000  0.2059880000000 -0.2578730000000 1.0   0.00
S      3  0.4020390000000 -0.0850960000000  0.1909600000000 1.0  -0.00
S      3 -0.0850960000000  0.4920970000000  0.1909600000000 1.0  -0.00
S      3  0.4920970000000  0.4020390000000  0.1909600000000 1.0  -0.00
Fe     4  0.3160870000000 -0.3152870000000  0.4687290000000 1.0  -0.00
Fe     4 -0.3152870000000  0.5304710000000  0.4687290000000 1.0  -0.00
Fe     4  0.5304710000000  0.3160870000000  0.4687290000000 1.0  -0.00
Fe     4 -0.3779100000000 -0.3779100000000  0.1337310000000 1.0   0.01
END
