TITL LFSO-Li5FeS2O2-200920-230753-7d5da2 0.0289 137.399696 -3.34499264E+003 -4.12791 4.23885 10 (R3) n - 1
REM
REM Run started: Mon, 21 Sep 2020 05:15:59 +0100 in /lustre/scratch/uccabz1/launch_tmp/launcher_2020-09-20-22-07-51-590736
REM CASTEP 20.1 from code version af48c487+ pr-geom-scf-spinfix Tue Jun 2 15:39:59 2020 +0100
REM Functional Perdew Burke Ernzerhof Relativity Koelling-Harmon Dispersion off
REM Cut-off 340.0000 eV Grid scale 1.7500 Gmax 16.5316 1/A FBSC none
REM MP grid 4 4 3 Offset 0.000 0.000 0.000 No. kpts 24 Spacing 0.07
REM Total runtime: 23701.2 s
REM Overall efficiency: 96.8462 %
REM
REM
REM
REM compiler GCC version 4.9.2
REM options -cpp -iprefix /lustre/shared/ucl/apps/gcc/4.9.2/bin/../lib/gcc/x86_64-unknown-linux-gnu/4.9.2/ -mtune=corei7 -march=x86-64 -g -Og
REM COMMAND_LINE
REM seed 679316463 625952381 562968768 -1046886206 -1875274828 -897726644 330702197 158517054 -181937629 1582340180 287112374 -1205481379
REM
REM S 3|1.8|5|6|7|30:31:32(qc=5)
REM O 2|1.5|12|13|15|20:21(qc=5)
REM Li 1|1.3|8|9|10|10U:20(qc=5)
REM Fe 3|2.2|2.0|1.0|8|9|10|40:41:32(qc=5)
REM 
CELL 1.54180    5.00629    5.00629    6.95893   68.91804   68.91804   60.00000
LATT -1
SFAC Li O  S  Fe 
Li     1  0.4924250000000  0.2278270000000 -0.5172370000000 1.0   0.01
Li     1 -0.2030150000000  0.4924250000000 -0.5172370000000 1.0   0.01
Li     1  0.2278270000000 -0.2030150000000 -0.5172370000000 1.0   0.01
Li     1 -0.2519870000000 -0.2519870000000  0.7559600000000 1.0  -0.02
Li     1  0.3582010000000  0.3582010000000 -1.0746020000000 1.0   0.04
O      2  0.4491070000000  0.4491070000000 -1.3473210000000 1.0   0.02
O      2 -0.1438080000000 -0.1438080000000  0.4314230000000 1.0  -0.21
S      3 -0.3799320000000 -0.3799320000000  1.1397950000000 1.0  -0.22
S      3  0.0678260000000  0.0678260000000 -0.2034780000000 1.0  -0.23
Fe     4 -0.0465680000000 -0.0465680000000  0.1397030000000 1.0  -3.54
END
