TITL LFSO-Li6FeS3O-200910-000049-8bfc32 0.4268 519.550745 -3.41183708E+003 2.00118 2.42676 11 (Pm) n - 1
REM
REM Run started: Thu, 10 Sep 2020 02:48:08 +0100 in /lustre/scratch/uccabz1/launch_tmp/launcher_2020-09-09-23-00-48-380470
REM CASTEP 20.1 from code version af48c487+ pr-geom-scf-spinfix Tue Jun 2 15:39:59 2020 +0100
REM Functional Perdew Burke Ernzerhof Relativity Koelling-Harmon Dispersion off
REM Cut-off 340.0000 eV Grid scale 1.7500 Gmax 16.5316 1/A FBSC none
REM MP grid 5 2 1 Offset 0.000 0.000 0.000 No. kpts 3 Spacing 0.07
REM Total runtime: 12305.9 s
REM Overall efficiency: 86.8333 %
REM
REM
REM
REM compiler GCC version 4.9.2
REM options -cpp -iprefix /lustre/shared/ucl/apps/gcc/4.9.2/bin/../lib/gcc/x86_64-unknown-linux-gnu/4.9.2/ -mtune=corei7 -march=x86-64 -g -Og
REM COMMAND_LINE
REM seed -801465234 313448736 -641075182 1449081440 233583061 -439589131 -349655745 -867731119 -1766539335 1133890926 -613397642 -856171884
REM
REM S 3|1.8|5|6|7|30:31:32(qc=5)
REM O 2|1.5|12|13|15|20:21(qc=5)
REM Li 1|1.3|8|9|10|10U:20(qc=5)
REM Fe 3|2.2|2.0|1.0|8|9|10|40:41:32(qc=5)
REM 
CELL 1.54180    3.51236    8.53404   19.61171   90.00000  117.89457   90.00000
LATT -1
SFAC Li O  S  Fe 
Li     1 -0.2389160000000  0.1277790000000  0.0607260000000 1.0   0.00
Li     1 -0.2389160000000 -0.1277790000000  0.0607260000000 1.0   0.00
Li     1  0.2325320000000  0.1719740000000 -0.1690530000000 1.0  -0.00
Li     1  0.2325320000000 -0.1719740000000 -0.1690530000000 1.0  -0.00
Li     1  0.0150410000000 -0.1473350000000 -0.0473160000000 1.0  -0.02
Li     1  0.0150410000000  0.1473350000000 -0.0473160000000 1.0  -0.02
O      2  0.2199690000000  0.0000000000000  0.0469940000000 1.0  -0.00
S      3  0.5324710000000  0.3236380000000 -0.0470020000000 1.0  -0.04
S      3  0.5324710000000 -0.3236380000000 -0.0470020000000 1.0  -0.04
S      3 -0.2749940000000  0.0000000000000 -0.1731080000000 1.0  -0.00
Fe     4  0.0331900000000  0.5000000000000 -0.0452610000000 1.0   2.12
END
