TITL LFSO-Li2Fe3SO3-200912-134158-270d0d 0.0323 132.021303 -4.60825614E+003 8.00022 8.43045 9 (R3m) n - 1
REM
REM Run started: Sat, 12 Sep 2020 16:23:52 +0100 in /lustre/scratch/uccabz1/launch_tmp/launcher_2020-09-12-12-41-57-048742
REM CASTEP 20.1 from code version af48c487+ pr-geom-scf-spinfix Tue Jun 2 15:39:59 2020 +0100
REM Functional Perdew Burke Ernzerhof Relativity Koelling-Harmon Dispersion off
REM Cut-off 340.0000 eV Grid scale 1.7500 Gmax 16.5316 1/A FBSC none
REM MP grid 3 3 4 Offset 0.000 0.000 0.000 No. kpts 14 Spacing 0.07
REM Total runtime: 10172.8 s
REM Overall efficiency: 96.2 %
REM
REM
REM
REM compiler GCC version 4.9.2
REM options -cpp -iprefix /lustre/shared/ucl/apps/gcc/4.9.2/bin/../lib/gcc/x86_64-unknown-linux-gnu/4.9.2/ -mtune=corei7 -march=x86-64 -g -Og
REM COMMAND_LINE
REM seed -418656072 1586877027 -1494749716 602445863 -1522104995 -697579704 630187759 2085258672 -582346994 2087316265 1882439706 -1144464361
REM
REM S 3|1.8|5|6|7|30:31:32(qc=5)
REM O 2|1.5|12|13|15|20:21(qc=5)
REM Li 1|1.3|8|9|10|10U:20(qc=5)
REM Fe 3|2.2|2.0|1.0|8|9|10|40:41:32(qc=5)
REM 
CELL 1.54180    6.36278    6.36278    5.26059   52.78844   52.78844   60.00000
LATT -1
SFAC Li O  S  Fe 
Li     1 -0.1314180000000 -0.1314180000000  0.3942530000000 1.0  -0.03
Li     1  0.0675500000000  0.0675500000000 -0.2026510000000 1.0  -0.10
O      2  0.1169240000000 -0.3212470000000  0.0877130000000 1.0   0.16
O      2  0.1166100000000  0.1169240000000  0.0877130000000 1.0   0.16
O      2 -0.3212470000000  0.1166100000000  0.0877130000000 1.0   0.16
S      3 -0.3496240000000 -0.3496240000000  0.0488730000000 1.0  -0.02
Fe     4  0.0507390000000  0.4303670000000  0.0888400000000 1.0   2.55
Fe     4  0.4300540000000  0.0507390000000  0.0888400000000 1.0   2.55
Fe     4  0.4303670000000  0.4300540000000  0.0888400000000 1.0   2.55
END
