TITL LFSO-Li2Fe3SO3-200912-145300-7e7df3 -0.0131 217.302280 -9.21642359E+003 -21.9768 22.2764 18 (R3) n - 1
REM
REM Run started: Sat, 12 Sep 2020 19:01:14 +0100 in /lustre/scratch/uccabz1/launch_tmp/launcher_2020-09-12-13-52-59-353055
REM CASTEP 20.1 from code version af48c487+ pr-geom-scf-spinfix Tue Jun 2 15:39:59 2020 +0100
REM Functional Perdew Burke Ernzerhof Relativity Koelling-Harmon Dispersion off
REM Cut-off 340.0000 eV Grid scale 1.7500 Gmax 16.5316 1/A FBSC none
REM MP grid 3 3 3 Offset 0.000 0.000 0.000 No. kpts 6 Spacing 0.07
REM Total runtime: 15007.6 s
REM Overall efficiency: 96.5714 %
REM
REM
REM
REM compiler GCC version 4.9.2
REM options -cpp -iprefix /lustre/shared/ucl/apps/gcc/4.9.2/bin/../lib/gcc/x86_64-unknown-linux-gnu/4.9.2/ -mtune=corei7 -march=x86-64 -g -Og
REM COMMAND_LINE
REM seed -1491355396 1235853889 1087391431 -683697308 553436611 1024454292 1987363463 -921688131 1940257444 1045726006 -421552185 -2041569528
REM
REM S 3|1.8|5|6|7|30:31:32(qc=5)
REM O 2|1.5|12|13|15|20:21(qc=5)
REM Li 1|1.3|8|9|10|10U:20(qc=5)
REM Fe 3|2.2|2.0|1.0|8|9|10|40:41:32(qc=5)
REM 
CELL 1.54180    6.03398    6.03398    6.03398   84.98068   84.98068   84.98068
LATT -1
SFAC Li O  S  Fe 
Li     1 -0.2065500000000  0.1447530000000 -0.4203640000000 1.0   0.05
Li     1 -0.4203640000000 -0.2065500000000  0.1447530000000 1.0   0.05
Li     1  0.1447530000000 -0.4203640000000 -0.2065500000000 1.0   0.05
Li     1 -0.0507930000000 -0.0507930000000 -0.0507930000000 1.0  -0.02
O      2 -0.0606850000000  0.4134070000000  0.6479830000000 1.0  -0.29
O      2  0.6479830000000 -0.0606850000000  0.4134070000000 1.0  -0.29
O      2  0.4134070000000  0.6479830000000 -0.0606850000000 1.0  -0.29
O      2 -0.0955710000000 -0.3632430000000  0.0736560000000 1.0  -0.30
O      2  0.0736560000000 -0.0955710000000 -0.3632430000000 1.0  -0.30
O      2 -0.3632430000000  0.0736560000000 -0.0955710000000 1.0  -0.30
S      3  0.4510870000000  0.4510870000000  0.4510870000000 1.0  -0.14
S      3  0.1508370000000  0.1508370000000  0.1508370000000 1.0  -0.32
Fe     4  0.4824840000000 -0.1071570000000 -0.2896270000000 1.0  -3.61
Fe     4 -0.2896270000000  0.4824840000000 -0.1071570000000 1.0  -3.61
Fe     4 -0.1071570000000 -0.2896270000000  0.4824840000000 1.0  -3.61
Fe     4  0.1983680000000  0.1872070000000 -0.4826270000000 1.0  -3.01
Fe     4 -0.4826270000000  0.1983680000000  0.1872070000000 1.0  -3.01
Fe     4  0.1872070000000 -0.4826270000000  0.1983680000000 1.0  -3.01
END
