TITL LFSO-Li4Fe3SO4-200928-151610-00a4cb 0.0030 165.409194 -5.43813321E+003 10.3549 10.8856 12 (P3) n - 1
REM
REM Run started: Mon, 28 Sep 2020 16:07:03 +0100 in /lustre/scratch/uccabz1/launch_tmp/launcher_2020-09-28-14-16-09-143445
REM CASTEP 20.1 from code version af48c487+ pr-geom-scf-spinfix Tue Jun 2 15:39:59 2020 +0100
REM Functional Perdew Burke Ernzerhof Relativity Koelling-Harmon Dispersion off
REM Cut-off 340.0000 eV Grid scale 1.7500 Gmax 16.5316 1/A FBSC none
REM MP grid 4 4 2 Offset 0.000 0.000 0.000 No. kpts 16 Spacing 0.07
REM Total runtime: 4728.62 s
REM Overall efficiency: 96.6 %
REM
REM
REM
REM compiler GCC version 4.9.2
REM options -cpp -iprefix /lustre/shared/ucl/apps/gcc/4.9.2/bin/../lib/gcc/x86_64-unknown-linux-gnu/4.9.2/ -mtune=corei7 -march=x86-64 -g -Og
REM COMMAND_LINE
REM seed -1872991217 -29060798 1619754110 -1916143403 861138743 1043698769 391706541 1188712561 -147655798 -88446751 1264585143 -1519898862
REM
REM S 3|1.8|5|6|7|30:31:32(qc=5)
REM O 2|1.5|12|13|15|20:21(qc=5)
REM Li 1|1.3|8|9|10|10U:20(qc=5)
REM Fe 3|2.2|2.0|1.0|8|9|10|40:41:32(qc=5)
REM 
CELL 1.54180    4.73462    4.73462    8.52037   90.00000   90.00000  120.00000
LATT -1
SFAC Li O  S  Fe 
Li     1 -0.0194600000000  0.3642030000000  0.3853030000000 1.0  -0.05
Li     1 -0.3642030000000 -0.3836630000000  0.3853030000000 1.0  -0.05
Li     1  0.3836630000000  0.0194600000000  0.3853030000000 1.0  -0.05
Li     1  0.0000000000000 -0.0000000000000  0.1362400000000 1.0  -0.09
O      2  0.2820730000000  0.2987590000000  0.2845080000000 1.0   0.90
O      2 -0.2987590000000 -0.0166860000000  0.2845080000000 1.0   0.90
O      2  0.0166860000000 -0.2820730000000  0.2845080000000 1.0   0.90
O      2 -0.3333330000000  0.3333330000000 -0.3973580000000 1.0   0.09
S      3 -0.3333330000000  0.3333330000000 -0.0425610000000 1.0   0.04
Fe     4 -0.0140890000000  0.3594090000000 -0.2414700000000 1.0   2.58
Fe     4 -0.3594090000000 -0.3734970000000 -0.2414700000000 1.0   2.58
Fe     4  0.3734970000000  0.0140890000000 -0.2414700000000 1.0   2.58
END
