TITL LFSO-Li2Fe2S3O-200913-071500-a9d2e9 -0.0125 135.269083 -3.47239442E+003 0.121123E-01 0.172846E-01 8 (P3) n - 1
REM
REM Run started: Sun, 13 Sep 2020 08:27:27 +0100 in /lustre/scratch/uccabz1/launch_tmp/launcher_2020-09-13-06-14-58-456504
REM CASTEP 20.1 from code version af48c487+ pr-geom-scf-spinfix Tue Jun 2 15:39:59 2020 +0100
REM Functional Perdew Burke Ernzerhof Relativity Koelling-Harmon Dispersion off
REM Cut-off 340.0000 eV Grid scale 1.7500 Gmax 16.5316 1/A FBSC none
REM MP grid 4 3 3 Offset 0.000 0.000 0.000 No. kpts 10 Spacing 0.07
REM Total runtime: 4544.6 s
REM Overall efficiency: 79.5714 %
REM
REM
REM
REM compiler GCC version 4.9.2
REM options -cpp -iprefix /lustre/shared/ucl/apps/gcc/4.9.2/bin/../lib/gcc/x86_64-unknown-linux-gnu/4.9.2/ -mtune=corei7 -march=x86-64 -g -Og
REM COMMAND_LINE
REM seed -1876345747 -851142271 -287853864 -1021008267 1470431641 36868787 81886360 -1990619519 645802790 347005760 -864701310 -167159680
REM
REM S 3|1.8|5|6|7|30:31:32(qc=5)
REM O 2|1.5|12|13|15|20:21(qc=5)
REM Li 1|1.3|8|9|10|10U:20(qc=5)
REM Fe 3|2.2|2.0|1.0|8|9|10|40:41:32(qc=5)
REM 
CELL 1.54180    4.12616    6.15263    6.15263  120.00000   90.00000   90.00000
LATT -1
SFAC Li O  S  Fe 
Li     1 -0.2283720000000 -0.3333330000000  0.3333330000000 1.0   0.00
Li     1  0.6443130000000  0.3333330000000 -0.3333330000000 1.0   0.00
O      2  0.1444320000000  0.3333330000000 -0.3333330000000 1.0  -0.00
S      3  0.1532490000000 -0.2951740000000 -0.3173770000000 1.0   0.00
S      3  0.1532490000000  0.3173770000000  0.0222030000000 1.0   0.00
S      3  0.1532490000000 -0.0222030000000  0.2951740000000 1.0   0.00
Fe     4 -0.5744810000000 -0.0000000000000  0.0000000000000 1.0   0.01
Fe     4 -0.1185530000000 -0.0000000000000  0.0000000000000 1.0   0.01
END
