TITL LFSO-Li3Fe3S5O-200928-182925-7e453f 0.7361 201.837306 -5.14685145E+003 9.02216 9.19428 12 (Cm) n - 1
REM
REM Run started: Tue, 29 Sep 2020 07:57:43 +0100 in /lustre/scratch/uccabz1/launch_tmp/launcher_2020-09-29-06-09-26-192144
REM CASTEP 20.1 from code version af48c487+ pr-geom-scf-spinfix Tue Jun 2 15:39:59 2020 +0100
REM Functional Perdew Burke Ernzerhof Relativity Koelling-Harmon Dispersion off
REM Cut-off 340.0000 eV Grid scale 1.7500 Gmax 16.5316 1/A FBSC none
REM MP grid 6 3 3 Offset 0.000 0.000 0.000 No. kpts 18 Spacing 0.07
REM Total runtime: 43843.3 s
REM Overall efficiency: 98.0769 %
REM
REM
REM
REM compiler GCC version 4.9.2
REM options -cpp -iprefix /lustre/shared/ucl/apps/gcc/4.9.2/bin/../lib/gcc/x86_64-unknown-linux-gnu/4.9.2/ -mtune=corei7 -march=x86-64 -g -Og
REM COMMAND_LINE
REM seed -1186019132 539874694 348309065 -592955207 -879268186 1476527094 856464205 2113117445 1138958320 -1923046706 510260133 -1451920292
REM
REM S 3|1.8|5|6|7|30:31:32(qc=5)
REM O 2|1.5|12|13|15|20:21(qc=5)
REM Li 1|1.3|8|9|10|10U:20(qc=5)
REM Fe 3|2.2|2.0|1.0|8|9|10|40:41:32(qc=5)
REM 
CELL 1.54180    4.20126   10.19679   10.19679   44.34349   45.98499   45.98499
LATT -1
SFAC Li O  S  Fe 
Li     1 -0.1114300000000  0.3104200000000 -0.2752560000000 1.0  -0.00
Li     1 -0.1114300000000 -0.2752560000000  0.3104200000000 1.0  -0.00
Li     1 -0.2104060000000  0.3149640000000  0.3149640000000 1.0  -0.08
O      2 -0.5079710000000 -0.2481730000000 -0.2481730000000 1.0   0.44
S      3  0.5799840000000  0.0925860000000 -0.1798230000000 1.0   0.03
S      3  0.5799840000000 -0.1798230000000  0.0925860000000 1.0   0.03
S      3  0.1667090000000  0.4200530000000 -0.0294980000000 1.0   0.12
S      3  0.1667090000000 -0.0294980000000  0.4200530000000 1.0   0.12
S      3  0.0216600000000  0.3960250000000  0.3960250000000 1.0   0.08
Fe     4 -0.6225200000000  0.5568330000000  0.0100390000000 1.0   3.01
Fe     4 -0.6225200000000  0.0100390000000  0.5568330000000 1.0   3.01
Fe     4  0.3001130000000  0.1030360000000  0.1030360000000 1.0   2.28
END
