TITL LFSO-LiFeSO-200921-175357-6719bf -0.0063 542.666289 -1.08288011E+004 13.8265 15.0128 24 (Pc) n - 1
REM
REM Run started: Tue, 22 Sep 2020 23:54:24 +0100 in /lustre/scratch/uccabz1/launch_tmp/launcher_2020-09-22-08-12-55-711017
REM CASTEP 20.1 from code version af48c487+ pr-geom-scf-spinfix Tue Jun 2 15:39:59 2020 +0100
REM Functional Perdew Burke Ernzerhof Relativity Koelling-Harmon Dispersion off
REM Cut-off 340.0000 eV Grid scale 1.7500 Gmax 16.5316 1/A FBSC none
REM MP grid 3 2 2 Offset 0.000 0.000 0.000 No. kpts 3 Spacing 0.07
REM Total runtime: 117600 s
REM Overall efficiency: 98.5714 %
REM
REM
REM
REM compiler GCC version 4.9.2
REM options -cpp -iprefix /lustre/shared/ucl/apps/gcc/4.9.2/bin/../lib/gcc/x86_64-unknown-linux-gnu/4.9.2/ -mtune=corei7 -march=x86-64 -g -Og
REM COMMAND_LINE
REM seed 1474920579 961733446 1184348287 -300945880 915397201 -1029751818 -186974487 505278416 -459047486 -1401500529 1824126539 414019118
REM
REM S 3|1.8|5|6|7|30:31:32(qc=5)
REM O 2|1.5|12|13|15|20:21(qc=5)
REM Li 1|1.3|8|9|10|10U:20(qc=5)
REM Fe 3|2.2|2.0|1.0|8|9|10|40:41:32(qc=5)
REM 
CELL 1.54180    6.88718   10.40466    7.89479   90.00000   73.58289   90.00000
LATT -1
SFAC Li O  S  Fe 
Li     1  0.5032210000000 -0.3740050000000 -0.3644100000000 1.0  -0.03
Li     1  0.0032210000000  0.3740050000000  0.1355900000000 1.0  -0.03
Li     1 -0.4055020000000  0.0045160000000  0.4226550000000 1.0   0.01
Li     1  0.0944980000000 -0.0045160000000 -0.0773450000000 1.0   0.01
Li     1  0.3122650000000 -0.2086240000000  0.4337780000000 1.0   0.01
Li     1 -0.1877350000000  0.2086240000000 -0.0662220000000 1.0   0.01
O      2 -0.5494820000000 -0.3777250000000  0.4181700000000 1.0   0.14
O      2 -0.0494820000000  0.3777250000000 -0.0818300000000 1.0   0.14
O      2 -0.2502650000000 -0.3166970000000  0.0036140000000 1.0   0.10
O      2  0.2497350000000  0.3166970000000  0.5036140000000 1.0   0.10
O      2 -0.0135050000000  0.0957230000000 -0.2223280000000 1.0   0.30
O      2 -0.5135050000000 -0.0957230000000  0.2776720000000 1.0   0.30
S      3 -0.0252850000000  0.0691350000000  0.3969510000000 1.0   0.05
S      3 -0.5252850000000 -0.0691350000000 -0.1030490000000 1.0   0.05
S      3  0.4692430000000  0.4157450000000  0.1172410000000 1.0   0.13
S      3 -0.0307570000000 -0.4157450000000 -0.3827590000000 1.0   0.13
S      3  0.0600200000000  0.1560540000000  0.1489280000000 1.0   0.01
S      3  0.5600200000000 -0.1560540000000 -0.3510720000000 1.0   0.01
Fe     4 -0.4183790000000 -0.1783000000000  0.0862450000000 1.0   2.38
Fe     4  0.0816210000000  0.1783000000000 -0.4137550000000 1.0   2.38
Fe     4  0.0870600000000  0.4077430000000 -0.3139730000000 1.0   1.91
Fe     4  0.5870600000000 -0.4077430000000  0.1860270000000 1.0   1.91
Fe     4 -0.1714810000000 -0.4672190000000 -0.1060480000000 1.0   1.91
Fe     4 -0.6714810000000  0.4672190000000  0.3939520000000 1.0   1.91
END
