TITL LFSO-Li4Fe3SO4-200930-224753-d16567 0.0240 181.682160 -5.44594068E+003 5.96642 6.18777 12 (Amm2) n - 1
REM
REM Run started: Thu, 01 Oct 2020 00:13:07 +0100 in /lustre/scratch/uccabz1/launch_tmp/launcher_2020-09-30-21-47-51-923527
REM CASTEP 20.1 from code version af48c487+ pr-geom-scf-spinfix Tue Jun 2 15:39:59 2020 +0100
REM Functional Perdew Burke Ernzerhof Relativity Koelling-Harmon Dispersion off
REM Cut-off 340.0000 eV Grid scale 1.7500 Gmax 16.5316 1/A FBSC none
REM MP grid 4 4 2 Offset 0.000 0.000 0.000 No. kpts 6 Spacing 0.07
REM Total runtime: 5144.46 s
REM Overall efficiency: 85.8571 %
REM
REM
REM
REM compiler GCC version 4.9.2
REM options -cpp -iprefix /lustre/shared/ucl/apps/gcc/4.9.2/bin/../lib/gcc/x86_64-unknown-linux-gnu/4.9.2/ -mtune=corei7 -march=x86-64 -g -Og
REM COMMAND_LINE
REM seed 775937847 -1941013127 1275617734 436221268 -1024380378 1027342774 935989564 -723065409 1754092975 1755889929 -1328609903 -1264873101
REM
REM S 3|1.8|5|6|7|30:31:32(qc=5)
REM O 2|1.5|12|13|15|20:21(qc=5)
REM Li 1|1.3|8|9|10|10U:20(qc=5)
REM Fe 3|2.2|2.0|1.0|8|9|10|40:41:32(qc=5)
REM 
CELL 1.54180    4.83853    4.83853    8.41659   90.00000   90.00000   67.22617
LATT -1
SFAC Li O  S  Fe 
Li     1 -0.0153890000000  0.6386260000000 -0.3055290000000 1.0  -0.01
Li     1 -0.6386260000000  0.0153890000000  0.3055290000000 1.0  -0.01
Li     1 -0.6386260000000  0.0153890000000 -0.3055290000000 1.0  -0.01
Li     1 -0.0153890000000  0.6386260000000  0.3055290000000 1.0  -0.01
O      2 -0.2849440000000 -0.0855020000000  0.1498420000000 1.0   0.03
O      2  0.0855020000000  0.2849440000000 -0.1498420000000 1.0   0.03
O      2  0.0855020000000  0.2849440000000  0.1498420000000 1.0   0.03
O      2 -0.2849440000000 -0.0855020000000 -0.1498420000000 1.0   0.03
S      3  0.3282450000000 -0.3282450000000  0.5000000000000 1.0  -0.00
Fe     4 -0.1183540000000 -0.4036060000000  0.0000000000000 1.0   1.97
Fe     4  0.4036060000000  0.1183540000000  0.0000000000000 1.0   1.97
Fe     4 -0.0887970000000  0.0887970000000  0.0000000000000 1.0   1.93
END
