TITL LFSO-LiFe3S4O-200909-101853-58972a -0.0074 173.884406 -4.44263973E+003 -6.76057 6.99992 9 (F222) n - 1
REM
REM Run started: Wed, 09 Sep 2020 12:44:12 +0100 in /lustre/scratch/uccabz1/launch_tmp/launcher_2020-09-09-09-18-51-817492
REM CASTEP 20.1 from code version af48c487+ pr-geom-scf-spinfix Tue Jun 2 15:39:59 2020 +0100
REM Functional Perdew Burke Ernzerhof Relativity Koelling-Harmon Dispersion off
REM Cut-off 340.0000 eV Grid scale 1.7500 Gmax 16.5316 1/A FBSC none
REM MP grid 4 4 3 Offset 0.000 0.000 0.000 No. kpts 16 Spacing 0.07
REM Total runtime: 9797.6 s
REM Overall efficiency: 96.1429 %
REM
REM
REM
REM compiler GCC version 4.9.2
REM options -cpp -iprefix /lustre/shared/ucl/apps/gcc/4.9.2/bin/../lib/gcc/x86_64-unknown-linux-gnu/4.9.2/ -mtune=corei7 -march=x86-64 -g -Og
REM COMMAND_LINE
REM seed -229990909 -1881920502 1454480137 -271778785 -3641002 -69319673 1862591149 -1914194137 445752381 -1587073853 1973455817 -101467349
REM
REM S 3|1.8|5|6|7|30:31:32(qc=5)
REM O 2|1.5|12|13|15|20:21(qc=5)
REM Li 1|1.3|8|9|10|10U:20(qc=5)
REM Fe 3|2.2|2.0|1.0|8|9|10|40:41:32(qc=5)
REM 
CELL 1.54180    6.17252    6.17252    7.13095   96.48850   96.48850  137.63772
LATT -1
SFAC Li O  S  Fe 
Li     1  0.2500000000000 -0.2500000000000  0.5000000000000 1.0  -0.01
O      2  0.5000000000000  0.5000000000000 -0.0000000000000 1.0  -0.66
S      3  0.2620280000000 -0.0295920000000  0.2266830000000 1.0  -0.01
S      3 -0.0353450000000  0.2562750000000  0.2266830000000 1.0  -0.01
S      3 -0.2562750000000  0.0353450000000 -0.2266830000000 1.0  -0.01
S      3  0.0295920000000 -0.2620280000000 -0.2266830000000 1.0  -0.01
Fe     4 -0.4998920000000  0.0001080000000  0.0002160000000 1.0  -2.03
Fe     4 -0.0001080000000  0.4998920000000 -0.0002160000000 1.0  -2.03
Fe     4  0.0000000000000 -0.0000000000000 -0.0000000000000 1.0  -1.99
END
