TITL LFSO-Li5FeS2O2-200920-234234-a68250 0.0689 393.842525 -6.69287353E+003 -6.71175 7.01229 20 (P3) n - 1
REM
REM Run started: Tue, 22 Sep 2020 01:18:35 +0100 in /lustre/scratch/uccabz1/launch_tmp/launcher_2020-09-20-22-42-32-522349
REM CASTEP 20.1 from code version af48c487+ pr-geom-scf-spinfix Tue Jun 2 15:39:59 2020 +0100
REM Functional Perdew Burke Ernzerhof Relativity Koelling-Harmon Dispersion off
REM Cut-off 340.0000 eV Grid scale 1.7500 Gmax 16.5316 1/A FBSC none
REM MP grid 3 3 2 Offset 0.000 0.000 0.000 No. kpts 5 Spacing 0.07
REM Total runtime: 96824.7 s
REM Overall efficiency: 77 %
REM
REM
REM
REM compiler GCC version 4.9.2
REM options -cpp -iprefix /lustre/shared/ucl/apps/gcc/4.9.2/bin/../lib/gcc/x86_64-unknown-linux-gnu/4.9.2/ -mtune=corei7 -march=x86-64 -g -Og
REM COMMAND_LINE
REM seed -497196034 -34376783 -117872812 -752127847 187932770 848373478 1541710148 -263983555 1125538771 206799505 -1359902547 -1717877004
REM
REM S 3|1.8|5|6|7|30:31:32(qc=5)
REM O 2|1.5|12|13|15|20:21(qc=5)
REM Li 1|1.3|8|9|10|10U:20(qc=5)
REM Fe 3|2.2|2.0|1.0|8|9|10|40:41:32(qc=5)
REM 
CELL 1.54180    7.71560    7.71560    7.63928   90.00000   90.00000  120.00000
LATT -1
SFAC Li O  S  Fe 
Li     1 -0.3337290000000  0.0477330000000  0.1586660000000 1.0  -0.00
Li     1 -0.0477330000000  0.6185380000000  0.1586660000000 1.0  -0.00
Li     1 -0.6185380000000  0.3337290000000  0.1586660000000 1.0  -0.00
Li     1  0.3671060000000 -0.0160860000000  0.4777050000000 1.0   0.01
Li     1  0.0160860000000  0.3831920000000  0.4777050000000 1.0   0.01
Li     1 -0.3831920000000 -0.3671060000000  0.4777050000000 1.0   0.01
Li     1  0.0920230000000  0.4446230000000 -0.1375500000000 1.0   0.00
Li     1 -0.4446230000000 -0.3526000000000 -0.1375500000000 1.0   0.00
Li     1  0.3526000000000 -0.0920230000000 -0.1375500000000 1.0   0.00
Li     1 -0.0000000000000  0.0000000000000  0.1683220000000 1.0  -0.01
O      2 -0.1125380000000  0.3357460000000 -0.3077230000000 1.0  -0.13
O      2 -0.3357460000000 -0.4482840000000 -0.3077230000000 1.0  -0.13
O      2  0.4482840000000  0.1125380000000 -0.3077230000000 1.0  -0.13
O      2  0.3333330000000 -0.3333330000000 -0.0647310000000 1.0  -0.26
S      3  0.0019800000000  0.3100200000000  0.1684740000000 1.0  -0.10
S      3 -0.3100200000000 -0.3080390000000  0.1684740000000 1.0  -0.10
S      3  0.3080390000000 -0.0019800000000  0.1684740000000 1.0  -0.10
S      3  0.3333330000000 -0.3333330000000 -0.5218930000000 1.0  -0.14
Fe     4  0.3333330000000 -0.3333330000000  0.1778520000000 1.0  -3.64
Fe     4 -0.3333330000000  0.3333330000000 -0.3100110000000 1.0  -2.01
END
