TITL LFSO-Li3Fe3SO5-201002-044622-8581bd 0.0303 171.906986 -5.68171191E+003 14.0721 14.1231 12 (P3) n - 1
REM
REM Run started: Fri, 02 Oct 2020 05:22:45 +0100 in /lustre/scratch/uccabz1/launch_tmp/launcher_2020-10-02-03-46-21-104487
REM CASTEP 20.1 from code version af48c487+ pr-geom-scf-spinfix Tue Jun 2 15:39:59 2020 +0100
REM Functional Perdew Burke Ernzerhof Relativity Koelling-Harmon Dispersion off
REM Cut-off 340.0000 eV Grid scale 1.7500 Gmax 16.5316 1/A FBSC none
REM MP grid 3 3 3 Offset 0.000 0.000 0.000 No. kpts 8 Spacing 0.07
REM Total runtime: 2211.14 s
REM Overall efficiency: 87.1429 %
REM
REM
REM
REM compiler GCC version 4.9.2
REM options -cpp -iprefix /lustre/shared/ucl/apps/gcc/4.9.2/bin/../lib/gcc/x86_64-unknown-linux-gnu/4.9.2/ -mtune=corei7 -march=x86-64 -g -Og
REM COMMAND_LINE
REM seed -425959604 -2062302435 2012839571 -1879811722 -762535729 1461143525 599269167 -1601275812 -1819897902 -9713592 944687396 886347448
REM
REM S 3|1.8|5|6|7|30:31:32(qc=5)
REM O 2|1.5|12|13|15|20:21(qc=5)
REM Li 1|1.3|8|9|10|10U:20(qc=5)
REM Fe 3|2.2|2.0|1.0|8|9|10|40:41:32(qc=5)
REM 
CELL 1.54180    6.05406    6.05406    5.41588   90.00000   90.00000  120.00000
LATT -1
SFAC Li O  S  Fe 
Li     1 -0.4027720000000 -0.0868980000000 -0.1799670000000 1.0   0.02
Li     1  0.3158740000000  0.4027720000000 -0.1799670000000 1.0   0.02
Li     1  0.0868980000000 -0.3158740000000 -0.1799670000000 1.0   0.02
O      2  0.1818500000000  0.3426880000000  0.5015600000000 1.0   0.55
O      2  0.1608380000000 -0.1818500000000  0.5015600000000 1.0   0.55
O      2 -0.3426880000000 -0.1608380000000  0.5015600000000 1.0   0.55
O      2  0.3333330000000 -0.3333330000000  0.0646710000000 1.0   0.30
O      2 -0.3333330000000  0.3333330000000  0.1888030000000 1.0   0.30
S      3 -0.3333330000000  0.3333330000000 -0.3026910000000 1.0   0.29
Fe     4  0.0069120000000  0.4898660000000  0.3554590000000 1.0   3.82
Fe     4  0.4829550000000 -0.0069120000000  0.3554590000000 1.0   3.82
Fe     4 -0.4898660000000 -0.4829550000000  0.3554590000000 1.0   3.82
END
