TITL LFSO-Li3FeS2O-200911-194540-522c1e 0.0228 147.623416 -2.50843046E+003 4.88708 4.92039 7 (Fmm2) n - 1
REM
REM Run started: Fri, 11 Sep 2020 20:21:39 +0100 in /lustre/scratch/uccabz1/launch_tmp/launcher_2020-09-11-18-45-38-834530
REM CASTEP 20.1 from code version af48c487+ pr-geom-scf-spinfix Tue Jun 2 15:39:59 2020 +0100
REM Functional Perdew Burke Ernzerhof Relativity Koelling-Harmon Dispersion off
REM Cut-off 340.0000 eV Grid scale 1.7500 Gmax 16.5316 1/A FBSC none
REM MP grid 4 4 3 Offset 0.000 0.000 0.000 No. kpts 16 Spacing 0.07
REM Total runtime: 2329.19 s
REM Overall efficiency: 92.5714 %
REM
REM
REM
REM compiler GCC version 4.9.2
REM options -cpp -iprefix /lustre/shared/ucl/apps/gcc/4.9.2/bin/../lib/gcc/x86_64-unknown-linux-gnu/4.9.2/ -mtune=corei7 -march=x86-64 -g -Og
REM COMMAND_LINE
REM seed -1453532021 1019294447 613610980 -1160569727 -755148118 917332604 303173181 -860608209 -156842688 529809853 -1435974980 1090797677
REM
REM S 3|1.8|5|6|7|30:31:32(qc=5)
REM O 2|1.5|12|13|15|20:21(qc=5)
REM Li 1|1.3|8|9|10|10U:20(qc=5)
REM Fe 3|2.2|2.0|1.0|8|9|10|40:41:32(qc=5)
REM 
CELL 1.54180    4.93982    4.93982    7.28591  114.24165  114.24165   77.80880
LATT -1
SFAC Li O  S  Fe 
Li     1 -0.2233140000000 -0.4609100000000  0.3157750000000 1.0   0.03
Li     1  0.4609100000000  0.2233140000000 -0.3157750000000 1.0   0.03
Li     1  0.3530250000000 -0.3530250000000  0.0000000000000 1.0  -0.03
O      2 -0.3578170000000  0.3578170000000  0.0000000000000 1.0   0.35
S      3  0.2707080000000  0.0275830000000  0.2982910000000 1.0   0.41
S      3 -0.0275830000000 -0.2707080000000 -0.2982910000000 1.0   0.41
Fe     4 -0.0673600000000  0.0673600000000  0.0000000000000 1.0   3.68
END
