TITL LFSO-Li4Fe3S3O2-200926-205043-935279 -0.3240 398.603155 -1.03488413E+004 13.1518 15.7903 24 (P3) n - 1
REM
REM Run started: Sun, 27 Sep 2020 17:59:42 +0100 in /lustre/scratch/uccabz1/launch_tmp/launcher_2020-09-27-09-00-00-718982
REM CASTEP 20.1 from code version af48c487+ pr-geom-scf-spinfix Tue Jun 2 15:39:59 2020 +0100
REM Functional Perdew Burke Ernzerhof Relativity Koelling-Harmon Dispersion off
REM Cut-off 340.0000 eV Grid scale 1.7500 Gmax 16.5316 1/A FBSC none
REM MP grid 3 3 2 Offset 0.000 0.000 0.000 No. kpts 5 Spacing 0.07
REM Total runtime: 52693.4 s
REM Overall efficiency: 76.7857 %
REM
REM
REM
REM compiler GCC version 4.9.2
REM options -cpp -iprefix /lustre/shared/ucl/apps/gcc/4.9.2/bin/../lib/gcc/x86_64-unknown-linux-gnu/4.9.2/ -mtune=corei7 -march=x86-64 -g -Og
REM COMMAND_LINE
REM seed -2101000853 1022310148 -569851091 833067219 1712341378 -668373722 264862339 -1147512837 -837263628 -342346839 -769494872 584127495
REM
REM S 3|1.8|5|6|7|30:31:32(qc=5)
REM O 2|1.5|12|13|15|20:21(qc=5)
REM Li 1|1.3|8|9|10|10U:20(qc=5)
REM Fe 3|2.2|2.0|1.0|8|9|10|40:41:32(qc=5)
REM 
CELL 1.54180    6.71727    6.71727   10.20056   90.00000   90.00000  120.00000
LATT -1
SFAC Li O  S  Fe 
Li     1  0.2238510000000 -0.1780200000000 -0.4380310000000 1.0  -0.01
Li     1 -0.4018720000000 -0.2238510000000 -0.4380310000000 1.0  -0.01
Li     1  0.1780200000000  0.4018720000000 -0.4380310000000 1.0  -0.01
Li     1 -0.3444770000000 -0.3928100000000  0.2577050000000 1.0   0.03
Li     1 -0.0483330000000  0.3444770000000  0.2577050000000 1.0   0.03
Li     1  0.3928100000000  0.0483330000000  0.2577050000000 1.0   0.03
Li     1  0.0000000000000 -0.0000000000000  0.2331580000000 1.0  -0.02
Li     1 -0.3333330000000  0.3333330000000  0.5943770000000 1.0   0.02
O      2  0.4721170000000  0.4699660000000 -0.4140860000000 1.0  -0.24
O      2 -0.0021510000000 -0.4721170000000 -0.4140860000000 1.0  -0.24
O      2 -0.4699660000000  0.0021510000000 -0.4140860000000 1.0  -0.24
O      2  0.0000000000000 -0.0000000000000 -0.2908900000000 1.0   0.05
S      3  0.0274610000000 -0.3063360000000  0.1919560000000 1.0   0.09
S      3 -0.3337980000000 -0.0274610000000  0.1919560000000 1.0   0.09
S      3  0.3063360000000  0.3337980000000  0.1919560000000 1.0   0.09
S      3  0.0038550000000 -0.4650740000000 -0.1578790000000 1.0  -0.13
S      3 -0.4689290000000 -0.0038550000000 -0.1578790000000 1.0  -0.13
S      3  0.4650740000000  0.4689290000000 -0.1578790000000 1.0  -0.13
Fe     4 -0.2686100000000 -0.1732860000000 -0.1905170000000 1.0   1.72
Fe     4  0.0953240000000  0.2686100000000 -0.1905170000000 1.0   1.72
Fe     4  0.1732860000000 -0.0953240000000 -0.1905170000000 1.0   1.72
Fe     4 -0.0730090000000 -0.2524580000000 -0.0077340000000 1.0   2.92
Fe     4 -0.1794490000000  0.0730090000000 -0.0077340000000 1.0   2.92
Fe     4  0.2524580000000  0.1794490000000 -0.0077340000000 1.0   2.92
END
