TITL LFSO-Li4Fe3S4O-200926-054607-fb42cf -0.2977 505.624630 -1.00860318E+004 -23.9974 24.3763 24 (Ama2) n - 1
REM
REM Run started: Sun, 27 Sep 2020 07:19:19 +0100 in /lustre/scratch/uccabz1/launch_tmp/launcher_2020-09-27-05-27-53-275121
REM CASTEP 20.1 from code version af48c487+ pr-geom-scf-spinfix Tue Jun 2 15:39:59 2020 +0100
REM Functional Perdew Burke Ernzerhof Relativity Koelling-Harmon Dispersion off
REM Cut-off 340.0000 eV Grid scale 1.7500 Gmax 16.5316 1/A FBSC none
REM MP grid 4 2 1 Offset 0.000 0.000 0.000 No. kpts 4 Spacing 0.07
REM Total runtime: 57934.2 s
REM Overall efficiency: 97.8182 %
REM
REM
REM
REM compiler GCC version 4.9.2
REM options -cpp -iprefix /lustre/shared/ucl/apps/gcc/4.9.2/bin/../lib/gcc/x86_64-unknown-linux-gnu/4.9.2/ -mtune=corei7 -march=x86-64 -g -Og
REM COMMAND_LINE
REM seed -32583468 -265767354 -2074078472 1609882576 -922359697 -793969324 1176870992 -4754516 -889504892 528229021 1392100782 -1967618533
REM
REM S 3|1.8|5|6|7|30:31:32(qc=5)
REM O 2|1.5|12|13|15|20:21(qc=5)
REM Li 1|1.3|8|9|10|10U:20(qc=5)
REM Fe 3|2.2|2.0|1.0|8|9|10|40:41:32(qc=5)
REM 
CELL 1.54180    3.82223    9.09540   14.87630   90.00000   90.00000  102.12928
LATT -1
SFAC Li O  S  Fe 
Li     1 -0.0228880000000  0.3028270000000  0.4752890000000 1.0  -0.02
Li     1 -0.3257140000000 -0.3028250000000 -0.4752890000000 1.0  -0.02
Li     1 -0.3257140000000 -0.3028250000000 -0.0247110000000 1.0  -0.02
Li     1 -0.0228880000000  0.3028270000000  0.0247110000000 1.0  -0.02
Li     1  0.3752690000000  0.0516160000000  0.3854320000000 1.0  -0.01
Li     1  0.3236550000000 -0.0516140000000 -0.3854320000000 1.0  -0.01
Li     1  0.3236550000000 -0.0516140000000 -0.1145680000000 1.0  -0.01
Li     1  0.3752690000000  0.0516160000000  0.1145680000000 1.0  -0.01
O      2  0.0761520000000 -0.4176970000000  0.2500000000000 1.0  -0.42
O      2  0.4938500000000  0.4176990000000 -0.2500000000000 1.0  -0.42
S      3  0.1711170000000 -0.3147810000000 -0.3830050000000 1.0  -0.22
S      3 -0.5141010000000  0.3147830000000  0.3830050000000 1.0  -0.22
S      3 -0.5141010000000  0.3147830000000  0.1169950000000 1.0  -0.22
S      3  0.1711170000000 -0.3147810000000 -0.1169950000000 1.0  -0.22
S      3 -0.2367100000000 -0.1417980000000  0.3899640000000 1.0  -0.20
S      3 -0.0949100000000  0.1418000000000 -0.3899640000000 1.0  -0.20
S      3 -0.0949100000000  0.1418000000000 -0.1100360000000 1.0  -0.20
S      3 -0.2367100000000 -0.1417980000000  0.1100360000000 1.0  -0.20
Fe     4  0.4654630000000  0.2553540000000 -0.3308730000000 1.0  -3.49
Fe     4  0.2101100000000 -0.2553520000000  0.3308730000000 1.0  -3.49
Fe     4  0.2101100000000 -0.2553520000000  0.1691270000000 1.0  -3.49
Fe     4  0.4654630000000  0.2553540000000 -0.1691270000000 1.0  -3.49
Fe     4 -0.6617930000000 -0.3952020000000 -0.2500000000000 1.0  -3.68
Fe     4 -0.2665890000000  0.3952040000000  0.2500000000000 1.0  -3.68
END
