TITL LFSO-Li4Fe3S2O3-201001-153009-80bf1e -0.0712 459.074022 -1.06233679E+004 23.9458 24.4356 24 (P21212) n - 1
REM
REM Run started: Thu, 01 Oct 2020 18:03:57 +0100 in /lustre/scratch/uccabz1/launch_tmp/launcher_2020-10-01-14-30-08-085305
REM CASTEP 20.1 from code version af48c487+ pr-geom-scf-spinfix Tue Jun 2 15:39:59 2020 +0100
REM Functional Perdew Burke Ernzerhof Relativity Koelling-Harmon Dispersion off
REM Cut-off 340.0000 eV Grid scale 1.7500 Gmax 16.5316 1/A FBSC none
REM MP grid 3 2 3 Offset 0.000 0.000 0.000 No. kpts 4 Spacing 0.07
REM Total runtime: 9583.22 s
REM Overall efficiency: 77.875 %
REM
REM
REM
REM compiler GCC version 4.9.2
REM options -cpp -iprefix /lustre/shared/ucl/apps/gcc/4.9.2/bin/../lib/gcc/x86_64-unknown-linux-gnu/4.9.2/ -mtune=corei7 -march=x86-64 -g -Og
REM COMMAND_LINE
REM seed 336499957 -170049470 1104994037 -1616166633 -975236181 853154495 -1128352841 1497161086 -1233451685 1915739740 680099141 756821741
REM
REM S 3|1.8|5|6|7|30:31:32(qc=5)
REM O 2|1.5|12|13|15|20:21(qc=5)
REM Li 1|1.3|8|9|10|10U:20(qc=5)
REM Fe 3|2.2|2.0|1.0|8|9|10|40:41:32(qc=5)
REM 
CELL 1.54180    6.00371   13.43078    5.69327   90.00000   90.00000   90.00000
LATT -1
SFAC Li O  S  Fe 
Li     1  0.4227620000000  0.2444710000000 -0.1145050000000 1.0   0.01
Li     1 -0.4227620000000 -0.2444710000000 -0.1145050000000 1.0   0.01
Li     1  0.0772380000000 -0.2555290000000  0.1145050000000 1.0   0.01
Li     1 -0.0772380000000  0.2555290000000  0.1145050000000 1.0   0.01
Li     1 -0.4599650000000  0.3069020000000  0.4161670000000 1.0  -0.02
Li     1  0.4599650000000 -0.3069020000000  0.4161670000000 1.0  -0.02
Li     1 -0.0400350000000 -0.1930980000000 -0.4161670000000 1.0  -0.02
Li     1  0.0400350000000  0.1930980000000 -0.4161670000000 1.0  -0.02
O      2 -0.1564250000000  0.2851970000000  0.4161060000000 1.0   0.31
O      2  0.1564250000000 -0.2851970000000  0.4161060000000 1.0   0.31
O      2  0.6564250000000 -0.2148030000000 -0.4161060000000 1.0   0.31
O      2 -0.6564250000000  0.2148030000000 -0.4161060000000 1.0   0.31
O      2 -0.5000000000000 -0.0000000000000  0.3559980000000 1.0   0.38
O      2  0.0000000000000  0.5000000000000 -0.3559980000000 1.0   0.38
S      3  0.2429380000000 -0.1218100000000 -0.1007280000000 1.0   0.24
S      3 -0.2429380000000  0.1218100000000 -0.1007280000000 1.0   0.24
S      3  0.2570620000000  0.3781900000000  0.1007280000000 1.0   0.24
S      3 -0.2570620000000 -0.3781900000000  0.1007280000000 1.0   0.24
Fe     4  0.4749460000000 -0.1044650000000 -0.4181980000000 1.0   3.58
Fe     4 -0.4749460000000  0.1044650000000 -0.4181980000000 1.0   3.58
Fe     4  0.0250540000000  0.3955350000000  0.4181980000000 1.0   3.58
Fe     4 -0.0250540000000 -0.3955350000000  0.4181980000000 1.0   3.58
Fe     4 -0.5000000000000 -0.0000000000000  0.0107750000000 1.0   3.34
Fe     4  0.0000000000000 -0.5000000000000 -0.0107750000000 1.0   3.34
END
