TITL LFSO-Li4Fe3SO4-200928-034555-0f5690 0.1274 591.927684 -10888.07155565 7.21128 20.5735 24 (Cm) n - 1
REM
REM Run started: Wed, 30 Sep 2020 09:20:03 +0100 in /lustre/scratch/uccabz1/launch_tmp/launcher_2020-09-30-07-52-56-034115
REM CASTEP 20.1 from code version af48c487+ pr-geom-scf-spinfix Tue Jun 2 15:39:59 2020 +0100
REM Functional Perdew Burke Ernzerhof Relativity Koelling-Harmon Dispersion off
REM Cut-off 340.0000 eV Grid scale 1.7500 Gmax 16.5316 1/A FBSC none
REM MP grid 3 2 2 Offset 0.000 0.000 0.000 No. kpts 5 Spacing 0.07
REM Total runtime: 128695 s
REM Overall efficiency: 74.9167 %
REM
REM
REM
REM compiler GCC version 4.9.2
REM options -cpp -iprefix /scratch/UCL/applications/gcc/4.9.2/bin/../lib/gcc/x86_64-unknown-linux-gnu/4.9.2/ -mtune=corei7 -march=x86-64 -g -O2
REM COMMAND_LINE
REM seed 1960837032 419404225 2026782029 -372184139 430050250 1750067378 -1980477023 72781203 47259679 1114900056 -1240626727 979307539
REM
REM S 3|1.8|5|6|7|30:31:32(qc=5)
REM O 2|1.5|12|13|15|20:21(qc=5)
REM Li 1|1.3|8|9|10|10U:20(qc=5)
REM Fe 3|2.2|2.0|1.0|8|9|10|40:41:32(qc=5)
REM 
CELL 1.54180    6.79696    9.37462    9.37462   90.01862   84.55104   84.55104
LATT -1
SFAC Li O  S  Fe 
Li     1  0.6487000000000 -0.5706710000000 -0.1883780000000 1.0  -0.11
Li     1  0.6487000000000 -0.1883780000000 -0.5706710000000 1.0  -0.11
Li     1  0.0703160000000 -0.0050430000000 -0.3459940000000 1.0   0.00
Li     1  0.0703160000000 -0.3459940000000 -0.0050430000000 1.0   0.00
Li     1  0.3991420000000  0.2872110000000 -0.3272820000000 1.0   0.02
Li     1  0.3991420000000 -0.3272820000000  0.2872110000000 1.0   0.02
Li     1  0.0480450000000 -0.2135920000000  0.2059830000000 1.0   0.00
Li     1  0.0480450000000  0.2059830000000 -0.2135920000000 1.0   0.00
O      2 -0.3258540000000 -0.3509620000000  0.3237070000000 1.0  -0.27
O      2 -0.3258540000000  0.3237070000000 -0.3509620000000 1.0  -0.27
O      2 -0.2976640000000 -0.0186640000000  0.5132010000000 1.0   0.05
O      2 -0.2976640000000  0.5132010000000 -0.0186640000000 1.0   0.05
O      2 -0.1429830000000 -0.2085990000000  0.0733840000000 1.0   0.02
O      2 -0.1429830000000  0.0733840000000 -0.2085990000000 1.0   0.02
O      2  0.2362190000000  0.1407970000000 -0.3763500000000 1.0   0.22
O      2  0.2362190000000 -0.3763500000000  0.1407970000000 1.0   0.22
S      3  0.3590560000000 -0.0518180000000  0.2914760000000 1.0   0.15
S      3  0.3590560000000  0.2914760000000 -0.0518180000000 1.0   0.15
Fe     4 -0.2793400000000 -0.3711010000000  0.1394920000000 1.0  -2.92
Fe     4 -0.2793400000000  0.1394920000000 -0.3711010000000 1.0  -2.92
Fe     4 -0.3780360000000 -0.0939800000000  0.1230890000000 1.0   3.23
Fe     4 -0.3780360000000  0.1230890000000 -0.0939800000000 1.0   3.23
Fe     4  0.4412900000000  0.0538890000000 -0.4990100000000 1.0   3.21
Fe     4  0.4412900000000 -0.4990100000000  0.0538890000000 1.0   3.21
END
