TITL LFSO-Li4Fe2SO4-200910-133359-bedaf8 0.0480 192.967620 -4.58264502E+003 5.33382 5.57486 11 (Pmmm) n - 1
REM
REM Run started: Thu, 10 Sep 2020 15:39:02 +0100 in /lustre/scratch/uccabz1/launch_tmp/launcher_2020-09-10-12-33-57-346839
REM CASTEP 20.1 from code version af48c487+ pr-geom-scf-spinfix Tue Jun 2 15:39:59 2020 +0100
REM Functional Perdew Burke Ernzerhof Relativity Koelling-Harmon Dispersion off
REM Cut-off 340.0000 eV Grid scale 1.7500 Gmax 16.5316 1/A FBSC none
REM MP grid 6 2 2 Offset 0.000 0.000 0.000 No. kpts 3 Spacing 0.07
REM Total runtime: 7528.73 s
REM Overall efficiency: 91.4444 %
REM
REM
REM
REM compiler GCC version 4.9.2
REM options -cpp -iprefix /lustre/shared/ucl/apps/gcc/4.9.2/bin/../lib/gcc/x86_64-unknown-linux-gnu/4.9.2/ -mtune=corei7 -march=x86-64 -g -Og
REM COMMAND_LINE
REM seed -964776278 509519779 -508179090 -930663173 -95744899 1045103470 1739411637 -93773519 2115148312 1571881256 -259620364 -1093546871
REM
REM S 3|1.8|5|6|7|30:31:32(qc=5)
REM O 2|1.5|12|13|15|20:21(qc=5)
REM Li 1|1.3|8|9|10|10U:20(qc=5)
REM Fe 3|2.2|2.0|1.0|8|9|10|40:41:32(qc=5)
REM 
CELL 1.54180    2.70290    8.26747    8.63540   90.00000   90.00000   90.00000
LATT -1
SFAC Li O  S  Fe 
Li     1  0.5000000000000  0.1885310000000 -0.2125750000000 1.0  -0.01
Li     1 -0.5000000000000 -0.1885310000000 -0.2125750000000 1.0  -0.01
Li     1 -0.5000000000000  0.1885310000000  0.2125750000000 1.0  -0.01
Li     1  0.5000000000000 -0.1885310000000  0.2125750000000 1.0  -0.01
O      2  0.0000000000000 -0.2387810000000  0.3496260000000 1.0   0.12
O      2  0.0000000000000  0.2387810000000  0.3496260000000 1.0   0.12
O      2  0.0000000000000 -0.2387810000000 -0.3496260000000 1.0   0.12
O      2  0.0000000000000  0.2387810000000 -0.3496260000000 1.0   0.12
S      3  0.5000000000000  0.0000000000000  0.0000000000000 1.0  -0.00
Fe     4  0.5000000000000 -0.2424200000000 -0.5000000000000 1.0   2.45
Fe     4 -0.5000000000000  0.2424200000000 -0.5000000000000 1.0   2.45
END
