TITL LFSO-Li4FeS2O-200910-115459-7b453c 0.0511 461.841285 -8.12648993E+003 -12.0000 12.1819 24 (P31) n - 1
REM
REM Run started: Fri, 11 Sep 2020 09:01:54 +0100 in /lustre/scratch/uccabz1/launch_tmp/launcher_2020-09-10-10-54-56-970782
REM CASTEP 20.1 from code version af48c487+ pr-geom-scf-spinfix Tue Jun 2 15:39:59 2020 +0100
REM Functional Perdew Burke Ernzerhof Relativity Koelling-Harmon Dispersion off
REM Cut-off 340.0000 eV Grid scale 1.7500 Gmax 16.5316 1/A FBSC none
REM MP grid 4 2 2 Offset 0.000 0.000 0.000 No. kpts 8 Spacing 0.07
REM Total runtime: 84711.5 s
REM Overall efficiency: 98.9167 %
REM
REM
REM
REM compiler GCC version 4.9.2
REM options -cpp -iprefix /lustre/shared/ucl/apps/gcc/4.9.2/bin/../lib/gcc/x86_64-unknown-linux-gnu/4.9.2/ -mtune=corei7 -march=x86-64 -g -Og
REM COMMAND_LINE
REM seed 582626472 -116157730 1281045415 -1999495690 -352320614 1540549748 -974660065 617236439 1577321461 1488851122 883917686 -1496012281
REM
REM S 3|1.8|5|6|7|30:31:32(qc=5)
REM O 2|1.5|12|13|15|20:21(qc=5)
REM Li 1|1.3|8|9|10|10U:20(qc=5)
REM Fe 3|2.2|2.0|1.0|8|9|10|40:41:32(qc=5)
REM 
CELL 1.54180    3.61740   12.14179   12.14179  120.00000   90.00000   90.00000
LATT -1
SFAC Li O  S  Fe 
Li     1  0.2253180000000 -0.1420730000000 -0.1524240000000 1.0  -0.01
Li     1 -0.1080150000000 -0.0103510000000  0.1420730000000 1.0  -0.01
Li     1  0.5586520000000  0.1524240000000  0.0103510000000 1.0  -0.01
Li     1  0.1352160000000  0.0001000000000 -0.4994710000000 1.0   0.00
Li     1 -0.1981170000000  0.5004290000000 -0.0001000000000 1.0   0.00
Li     1  0.4685490000000  0.4994710000000 -0.5004290000000 1.0   0.00
Li     1 -0.4710640000000  0.0917120000000 -0.2635610000000 1.0   0.01
Li     1  0.1956030000000  0.6447270000000 -0.0917120000000 1.0   0.01
Li     1 -0.1377310000000  0.2635610000000 -0.6447270000000 1.0   0.01
Li     1 -0.7518030000000 -0.4218450000000  0.1727210000000 1.0  -0.01
Li     1 -1.0851360000000  0.5945650000000  0.4218450000000 1.0  -0.01
Li     1 -0.4184700000000 -0.1727210000000 -0.5945650000000 1.0  -0.01
O      2  0.3265760000000 -0.4240910000000  0.0127950000000 1.0  -0.19
O      2 -0.0067570000000  0.4368850000000  0.4240910000000 1.0  -0.19
O      2 -0.3400910000000 -0.0127950000000 -0.4368850000000 1.0  -0.19
S      3 -0.3021830000000 -0.2115040000000 -0.0534290000000 1.0  -0.11
S      3  0.3644840000000  0.1580750000000  0.2115040000000 1.0  -0.11
S      3  0.0311500000000  0.0534290000000 -0.1580750000000 1.0  -0.11
S      3  0.4048850000000 -0.2661250000000 -0.4399010000000 1.0  -0.17
S      3  0.0715510000000 -0.1737750000000  0.2661250000000 1.0  -0.17
S      3 -0.2617820000000  0.4399010000000  0.1737750000000 1.0  -0.17
Fe     4  0.5655330000000 -0.2559010000000  0.1136240000000 1.0  -3.53
Fe     4  0.2322000000000  0.3695250000000  0.2559010000000 1.0  -3.53
Fe     4 -0.1011340000000 -0.1136240000000 -0.3695250000000 1.0  -3.53
END
