TITL LFSO-Li2Fe2S2O-200913-120856-066833 -1.3487 261.877796 -6.34467879E+003 12.0001 12.4107 14 (Aea2) n - 1
REM
REM Run started: Sun, 13 Sep 2020 14:51:46 +0100 in /lustre/scratch/uccabz1/launch_tmp/launcher_2020-09-13-13-40-53-399342
REM CASTEP 20.1 from code version af48c487+ pr-geom-scf-spinfix Tue Jun 2 15:39:59 2020 +0100
REM Functional Perdew Burke Ernzerhof Relativity Koelling-Harmon Dispersion off
REM Cut-off 340.0000 eV Grid scale 1.7500 Gmax 16.5316 1/A FBSC none
REM MP grid 3 3 2 Offset 0.000 0.000 0.000 No. kpts 4 Spacing 0.07
REM Total runtime: 9986.18 s
REM Overall efficiency: 96.3636 %
REM
REM
REM
REM compiler GCC version 4.9.2
REM options -cpp -iprefix /lustre/shared/ucl/apps/gcc/4.9.2/bin/../lib/gcc/x86_64-unknown-linux-gnu/4.9.2/ -mtune=corei7 -march=x86-64 -g -Og
REM COMMAND_LINE
REM seed -680724281 -474524022 992160094 -1193249686 712675474 -1662347157 1283328500 -1671226545 -1111722495 386930000 -2063967313 684272684
REM
REM S 3|1.8|5|6|7|30:31:32(qc=5)
REM O 2|1.5|12|13|15|20:21(qc=5)
REM Li 1|1.3|8|9|10|10U:20(qc=5)
REM Fe 3|2.2|2.0|1.0|8|9|10|40:41:32(qc=5)
REM 
CELL 1.54180    5.85006    5.85006    8.44645   90.00000   90.00000  115.04847
LATT -1
SFAC Li O  S  Fe 
Li     1 -0.2466250000000  0.4947230000000 -0.0702930000000 1.0  -0.05
Li     1  0.4947230000000 -0.2466250000000  0.0702930000000 1.0  -0.05
Li     1 -0.0052770000000  0.2533750000000  0.4297070000000 1.0  -0.05
Li     1  0.2533750000000 -0.0052770000000 -0.4297070000000 1.0  -0.05
O      2  0.4276280000000  0.4276280000000 -0.0000000000000 1.0   0.17
O      2 -0.0723720000000 -0.0723720000000  0.5000000000000 1.0   0.17
S      3  0.2375430000000 -0.4678300000000 -0.3525140000000 1.0   0.11
S      3 -0.4678300000000  0.2375430000000  0.3525140000000 1.0   0.11
S      3  0.0321700000000 -0.2624570000000  0.1474860000000 1.0   0.11
S      3 -0.2624570000000  0.0321700000000 -0.1474860000000 1.0   0.11
Fe     4 -0.2187900000000 -0.3547570000000  0.3750460000000 1.0   2.86
Fe     4 -0.3547570000000 -0.2187900000000 -0.3750460000000 1.0   2.86
Fe     4  0.1452430000000  0.2812100000000 -0.1249540000000 1.0   2.86
Fe     4  0.2812100000000  0.1452430000000  0.1249540000000 1.0   2.86
END
