TITL LFSO-Li2Fe4S2O3-200912-085156-197d03 -0.0270 346.750837 -1.15401210E+004 19.6343 20.7966 22 (P3) n - 1
REM
REM Run started: Mon, 14 Sep 2020 10:37:05 +0100 in /lustre/scratch/uccabz1/launch_tmp/launcher_2020-09-14-07-49-46-505865
REM CASTEP 20.1 from code version af48c487+ pr-geom-scf-spinfix Tue Jun 2 15:39:59 2020 +0100
REM Functional Perdew Burke Ernzerhof Relativity Koelling-Harmon Dispersion off
REM Cut-off 340.0000 eV Grid scale 1.7500 Gmax 16.5316 1/A FBSC none
REM MP grid 4 4 2 Offset 0.000 0.000 0.000 No. kpts 16 Spacing 0.07
REM Total runtime: 160314 s
REM Overall efficiency: 98.9 %
REM
REM
REM
REM compiler GCC version 4.9.2
REM options -cpp -iprefix /lustre/shared/ucl/apps/gcc/4.9.2/bin/../lib/gcc/x86_64-unknown-linux-gnu/4.9.2/ -mtune=corei7 -march=x86-64 -g -Og
REM COMMAND_LINE
REM seed 558044665 -466250621 -821062160 1566037837 1108961970 246340994 -621258281 -1352669221 435476362 -1812416401 -1555308001 1098295906
REM
REM S 3|1.8|5|6|7|30:31:32(qc=5)
REM O 2|1.5|12|13|15|20:21(qc=5)
REM Li 1|1.3|8|9|10|10U:20(qc=5)
REM Fe 3|2.2|2.0|1.0|8|9|10|40:41:32(qc=5)
REM 
CELL 1.54180    5.45668    5.45668   13.44715   90.00000   90.00000  120.00000
LATT -1
SFAC Li O  S  Fe 
Li     1  0.3673580000000  0.3592800000000  0.1634540000000 1.0  -0.08
Li     1 -0.3592800000000  0.0080780000000  0.1634540000000 1.0  -0.08
Li     1 -0.0080780000000 -0.3673580000000  0.1634540000000 1.0  -0.08
Li     1 -0.0000000000000  0.0000000000000 -0.2205580000000 1.0   0.01
O      2 -0.0511290000000  0.3197250000000 -0.1289590000000 1.0   0.22
O      2 -0.3197250000000 -0.3708530000000 -0.1289590000000 1.0   0.22
O      2  0.3708530000000  0.0511290000000 -0.1289590000000 1.0   0.22
O      2 -0.0437510000000 -0.3738510000000 -0.3096090000000 1.0   0.33
O      2  0.3738510000000  0.3301000000000 -0.3096090000000 1.0   0.33
O      2 -0.3301000000000  0.0437510000000 -0.3096090000000 1.0   0.33
S      3 -0.3144810000000 -0.2886400000000  0.2974770000000 1.0   0.10
S      3  0.2886400000000 -0.0258410000000  0.2974770000000 1.0   0.10
S      3  0.0258410000000  0.3144810000000  0.2974770000000 1.0   0.10
S      3 -0.3333330000000  0.3333330000000  0.5024380000000 1.0  -0.19
Fe     4  0.2193590000000 -0.0477830000000 -0.0152990000000 1.0   2.81
Fe     4  0.0477830000000  0.2671420000000 -0.0152990000000 1.0   2.81
Fe     4 -0.2671420000000 -0.2193590000000 -0.0152990000000 1.0   2.81
Fe     4  0.0832100000000 -0.3569050000000 -0.4242570000000 1.0   2.22
Fe     4  0.3569050000000  0.4401140000000 -0.4242570000000 1.0   2.22
Fe     4 -0.4401140000000 -0.0832100000000 -0.4242570000000 1.0   2.22
Fe     4 -0.3333330000000  0.3333330000000 -0.2040040000000 1.0   1.11
Fe     4  0.3333330000000 -0.3333330000000  0.3659430000000 1.0   1.89
END
