TITL LFSO-LiFeSO-200921-214109-44acfe 0.2865 409.306710 -7.22065210E+003 -2.89774 3.92904 16 (Pm) n - 1
REM
REM Run started: Tue, 22 Sep 2020 13:31:29 +0100 in /lustre/scratch/uccabz1/launch_tmp/launcher_2020-09-21-22-22-53-561577
REM CASTEP 20.1 from code version af48c487+ pr-geom-scf-spinfix Tue Jun 2 15:39:59 2020 +0100
REM Functional Perdew Burke Ernzerhof Relativity Koelling-Harmon Dispersion off
REM Cut-off 340.0000 eV Grid scale 1.7500 Gmax 16.5316 1/A FBSC none
REM MP grid 2 3 3 Offset 0.000 0.000 0.000 No. kpts 5 Spacing 0.07
REM Total runtime: 60972.9 s
REM Overall efficiency: 81.4286 %
REM
REM
REM
REM compiler GCC version 4.9.2
REM options -cpp -iprefix /lustre/shared/ucl/apps/gcc/4.9.2/bin/../lib/gcc/x86_64-unknown-linux-gnu/4.9.2/ -mtune=corei7 -march=x86-64 -g -Og
REM COMMAND_LINE
REM seed -1375197438 469999209 292556117 778567799 -1948146337 152344467 1521727456 -174745627 113745337 703752635 348912566 -1107701768
REM
REM S 3|1.8|5|6|7|30:31:32(qc=5)
REM O 2|1.5|12|13|15|20:21(qc=5)
REM Li 1|1.3|8|9|10|10U:20(qc=5)
REM Fe 3|2.2|2.0|1.0|8|9|10|40:41:32(qc=5)
REM 
CELL 1.54180    8.51116    8.20989    7.78480  131.19726   90.00000   90.00000
LATT -1
SFAC Li O  S  Fe 
Li     1 -0.2820830000000 -0.3537820000000  0.1607690000000 1.0   0.00
Li     1  0.2820830000000 -0.3537820000000  0.1607690000000 1.0   0.00
Li     1 -0.2813830000000  0.1406510000000 -0.3265810000000 1.0  -0.00
Li     1  0.2813830000000  0.1406510000000 -0.3265810000000 1.0  -0.00
O      2 -0.3038660000000 -0.0624590000000  0.3636040000000 1.0  -0.07
O      2  0.3038660000000 -0.0624590000000  0.3636040000000 1.0  -0.07
O      2  0.3033770000000  0.3558400000000 -0.0183580000000 1.0  -0.07
O      2 -0.3033770000000  0.3558400000000 -0.0183580000000 1.0  -0.07
S      3  0.3458700000000 -0.0861050000000 -0.0861930000000 1.0   0.10
S      3 -0.3458700000000 -0.0861050000000 -0.0861930000000 1.0   0.10
S      3 -0.3466890000000  0.3877910000000  0.4403710000000 1.0   0.10
S      3  0.3466890000000  0.3877910000000  0.4403710000000 1.0   0.10
Fe     4  0.3715060000000  0.2468920000000  0.0974750000000 1.0  -0.76
Fe     4 -0.3715060000000  0.2468920000000  0.0974750000000 1.0  -0.76
Fe     4 -0.3715990000000  0.0540480000000  0.2559230000000 1.0  -0.76
Fe     4  0.3715990000000  0.0540480000000  0.2559230000000 1.0  -0.76
END
