TITL LFSO-Li2Fe3S3O-200912-191743-1915ec -0.5519 341.456228 -8680.100718058 7.44374 18.3104 18 (P2) n - 1
REM
REM Run started: Mon, 14 Sep 2020 05:19:02 +0100 in /lustre/scratch/uccabz1/launch_tmp/launcher_2020-09-12-18-17-42-347517
REM CASTEP 20.1 from code version af48c487+ pr-geom-scf-spinfix Tue Jun 2 15:39:59 2020 +0100
REM Functional Perdew Burke Ernzerhof Relativity Koelling-Harmon Dispersion off
REM Cut-off 340.0000 eV Grid scale 1.7500 Gmax 16.5316 1/A FBSC none
REM MP grid 3 3 2 Offset 0.000 0.000 0.000 No. kpts 6 Spacing 0.07
REM Total runtime: 122464 s
REM Overall efficiency: 96.3636 %
REM
REM
REM
REM compiler GCC version 4.9.2
REM options -cpp -iprefix /lustre/shared/ucl/apps/gcc/4.9.2/bin/../lib/gcc/x86_64-unknown-linux-gnu/4.9.2/ -mtune=corei7 -march=x86-64 -g -Og
REM COMMAND_LINE
REM seed -427328199 841607502 429505937 -771103309 763123517 -1275192497 1842220185 1155302496 -261916712 -946452885 469533978 -1643837770
REM
REM S 3|1.8|5|6|7|30:31:32(qc=5)
REM O 2|1.5|12|13|15|20:21(qc=5)
REM Li 1|1.3|8|9|10|10U:20(qc=5)
REM Fe 3|2.2|2.0|1.0|8|9|10|40:41:32(qc=5)
REM 
CELL 1.54180    5.98704    7.05457    9.02566   63.60138   90.00000   90.00000
LATT -1
SFAC Li O  S  Fe 
Li     1  0.2661510000000 -0.3936360000000 -0.2825070000000 1.0   0.04
Li     1  0.2661510000000  0.3936360000000  0.2825070000000 1.0   0.04
Li     1  0.2648630000000  0.2158400000000 -0.3063460000000 1.0   0.04
Li     1  0.2648630000000 -0.2158400000000  0.3063460000000 1.0   0.04
O      2  0.0558810000000 -0.3868840000000  0.2515280000000 1.0   0.21
O      2  0.0558810000000  0.3868840000000 -0.2515280000000 1.0   0.21
S      3  0.0355320000000 -0.1412770000000 -0.1952220000000 1.0   0.04
S      3  0.0355320000000  0.1412770000000  0.1952220000000 1.0   0.04
S      3 -0.3946330000000 -0.2547220000000 -0.5114720000000 1.0   0.17
S      3 -0.3946330000000  0.2547220000000  0.5114720000000 1.0   0.17
S      3 -0.4439040000000 -0.3282080000000  0.1001430000000 1.0   0.08
S      3 -0.4439040000000  0.3282080000000 -0.1001430000000 1.0   0.08
Fe     4  0.2587920000000 -0.1675040000000  0.0036200000000 1.0  -2.52
Fe     4  0.2587920000000  0.1675040000000 -0.0036200000000 1.0  -2.52
Fe     4 -0.0938810000000 -0.3524220000000  0.0519140000000 1.0   2.85
Fe     4 -0.0938810000000  0.3524220000000 -0.0519140000000 1.0   2.85
Fe     4 -0.2530750000000  0.4261680000000 -0.3455980000000 1.0   2.79
Fe     4 -0.2530750000000 -0.4261680000000  0.3455980000000 1.0   2.79
END
