TITL LFSO-Li3Fe3S2O4-200929-123917-4ce4bc -0.0277 385.044862 -1.10951952E+004 15.3885 16.2236 24 (Aem2) n - 1
REM
REM Run started: Tue, 29 Sep 2020 17:28:24 +0100 in /lustre/scratch/uccabz1/launch_tmp/launcher_2020-09-29-11-39-15-346596
REM CASTEP 20.1 from code version af48c487+ pr-geom-scf-spinfix Tue Jun 2 15:39:59 2020 +0100
REM Functional Perdew Burke Ernzerhof Relativity Koelling-Harmon Dispersion off
REM Cut-off 340.0000 eV Grid scale 1.7500 Gmax 16.5316 1/A FBSC none
REM MP grid 5 2 2 Offset 0.000 0.000 0.000 No. kpts 6 Spacing 0.07
REM Total runtime: 17577.4 s
REM Overall efficiency: 97.5714 %
REM
REM
REM
REM compiler GCC version 4.9.2
REM options -cpp -iprefix /lustre/shared/ucl/apps/gcc/4.9.2/bin/../lib/gcc/x86_64-unknown-linux-gnu/4.9.2/ -mtune=corei7 -march=x86-64 -g -Og
REM COMMAND_LINE
REM seed 241763184 -594459330 -1449926595 1734147149 519767950 2034901664 828412548 -404617292 -253300523 -538556271 -614507348 1915152915
REM
REM S 3|1.8|5|6|7|30:31:32(qc=5)
REM O 2|1.5|12|13|15|20:21(qc=5)
REM Li 1|1.3|8|9|10|10U:20(qc=5)
REM Fe 3|2.2|2.0|1.0|8|9|10|40:41:32(qc=5)
REM 
CELL 1.54180    3.32547   10.90084   10.90084   77.00848   90.00000   90.00000
LATT -1
SFAC Li O  S  Fe 
Li     1 -0.0918370000000  0.2233960000000 -0.0250790000000 1.0   0.03
Li     1  0.0918370000000 -0.0250790000000  0.2233960000000 1.0   0.03
Li     1 -0.0918370000000  0.4749210000000 -0.2766040000000 1.0   0.03
Li     1  0.0918370000000 -0.2766040000000  0.4749210000000 1.0   0.03
Li     1 -0.3797120000000 -0.3101960000000  0.1898040000000 1.0   0.00
Li     1  0.3797120000000  0.1898040000000 -0.3101960000000 1.0   0.00
O      2 -0.6119790000000  0.4042040000000 -0.3203760000000 1.0   0.18
O      2  0.6119790000000 -0.3203760000000  0.4042040000000 1.0   0.18
O      2 -0.6119790000000  0.1796240000000 -0.0957960000000 1.0   0.18
O      2  0.6119790000000 -0.0957960000000  0.1796240000000 1.0   0.18
O      2  0.1019990000000  0.0038930000000 -0.2442630000000 1.0   0.16
O      2 -0.1019990000000 -0.2442630000000  0.0038930000000 1.0   0.16
O      2  0.1019990000000  0.2557370000000 -0.4961070000000 1.0   0.16
O      2 -0.1019990000000 -0.4961070000000  0.2557370000000 1.0   0.16
S      3 -0.3842270000000 -0.1985170000000 -0.3395210000000 1.0   0.10
S      3  0.3842270000000 -0.3395210000000 -0.1985170000000 1.0   0.10
S      3 -0.3842270000000  0.1604790000000  0.3014830000000 1.0   0.10
S      3  0.3842270000000  0.3014830000000  0.1604790000000 1.0   0.10
Fe     4  0.2496840000000  0.4008400000000 -0.4729020000000 1.0   2.12
Fe     4 -0.2496840000000 -0.4729020000000  0.4008400000000 1.0   2.12
Fe     4  0.2496840000000  0.0270980000000 -0.0991600000000 1.0   2.12
Fe     4 -0.2496840000000 -0.0991600000000  0.0270980000000 1.0   2.12
Fe     4  0.0000000000000 -0.1695120000000 -0.1695120000000 1.0   2.50
Fe     4  0.0000000000000  0.3304880000000  0.3304880000000 1.0   2.50
END
