TITL LFSO-Li3Fe3S5O-201002-091709-1154e8 0.0490 451.080508 -1.02954332E+004 11.4187 18.4992 24 (P1) n - 1
REM
REM Run started: Sat, 03 Oct 2020 12:39:07 +0100 in /scratch/scratch/mmm0366/launch_tmp/launcher_2020-10-02-08-17-07-612034
REM CASTEP 19.11| from code version Version unavailable
REM Functional Perdew Burke Ernzerhof Relativity Koelling-Harmon Dispersion off
REM Cut-off 340.0000 eV Grid scale 1.7500 Gmax 16.5316 1/A FBSC none
REM MP grid 5 2 1 Offset 0.000 0.000 0.000 No. kpts 3 Spacing 0.07
REM Total runtime: 98631.7 s
REM Overall efficiency: 88.1818 %
REM
REM
REM
REM compiler GCC version 4.9.2
REM options -cpp -iprefix /scratch/UCL/applications/gcc/4.9.2/bin/../lib/gcc/x86_64-unknown-linux-gnu/4.9.2/ -mtune=corei7 -march=x86-64 -g -O2
REM COMMAND_LINE
REM seed 678570130 914843129 -257877878 1284086665 169506801 1332077027 -1348175318 -1854243084 1441906205 -777734738 115845077 -1728445660
REM
REM S 3|1.8|5|6|7|30:31:32(qc=5)
REM O 2|1.5|12|13|15|20:21(qc=5)
REM Li 1|1.3|8|9|10|10U:20(qc=5)
REM Fe 3|2.2|2.0|1.0|8|9|10|40:41:32(qc=5)
REM 
CELL 1.54180    3.41936    7.37960   17.88756   87.96116   90.00000   90.00000
LATT -1
SFAC Li O  S  Fe 
Li     1 -0.1921500000000 -0.1659560000000  0.5381050000000 1.0   0.10
Li     1  0.3078500000000  0.1659560000000 -0.5381050000000 1.0   0.10
Li     1 -0.1969680000000  0.4361670000000 -0.4609450000000 1.0  -0.05
Li     1  0.3030320000000 -0.4361670000000  0.4609450000000 1.0  -0.05
Li     1  0.4252900000000 -0.1136110000000 -0.2971120000000 1.0  -0.01
Li     1 -0.0747100000000  0.1136110000000  0.2971120000000 1.0  -0.01
O      2 -0.5524480000000  0.0996580000000  0.2456630000000 1.0   0.42
O      2 -0.0524480000000 -0.0996580000000 -0.2456630000000 1.0   0.42
S      3  0.0790900000000 -0.3473320000000  0.0370580000000 1.0  -0.00
S      3 -0.4209100000000  0.3473320000000 -0.0370580000000 1.0  -0.00
S      3  0.0690970000000  0.0330120000000  0.0831470000000 1.0   0.01
S      3 -0.4309030000000 -0.0330120000000 -0.0831470000000 1.0   0.01
S      3  0.2478990000000 -0.1375870000000  0.4102870000000 1.0   0.22
S      3 -0.2521010000000  0.1375870000000 -0.4102870000000 1.0   0.22
S      3 -0.2578920000000 -0.2848800000000  0.2283020000000 1.0   0.25
S      3  0.2421080000000  0.2848800000000 -0.2283020000000 1.0   0.25
S      3 -0.2002370000000 -0.5988680000000  0.4053370000000 1.0   0.19
S      3 -0.7002370000000  0.5988680000000 -0.4053370000000 1.0   0.19
Fe     4  0.0519430000000  0.0304080000000 -0.1710260000000 1.0   2.73
Fe     4 -0.4480570000000 -0.0304080000000  0.1710260000000 1.0   2.73
Fe     4  0.2535000000000  0.3034500000000 -0.3512980000000 1.0   3.48
Fe     4 -0.2465000000000 -0.3034500000000  0.3512980000000 1.0   3.48
Fe     4 -0.4202310000000 -0.1615430000000  0.0340350000000 1.0  -1.65
Fe     4  0.0797690000000  0.1615430000000 -0.0340350000000 1.0  -1.65
END
