TITL LFSO-Li4Fe2S3O-200911-003826-faaafb -0.0295 171.747120 -3.87611654E+003 6.08955 6.20645 10 (C2) n - 1
REM
REM Run started: Fri, 11 Sep 2020 04:16:19 +0100 in /lustre/scratch/uccabz1/launch_tmp/launcher_2020-09-10-23-38-24-107868
REM CASTEP 20.1 from code version af48c487+ pr-geom-scf-spinfix Tue Jun 2 15:39:59 2020 +0100
REM Functional Perdew Burke Ernzerhof Relativity Koelling-Harmon Dispersion off
REM Cut-off 340.0000 eV Grid scale 1.7500 Gmax 16.5316 1/A FBSC none
REM MP grid 4 3 3 Offset 0.000 0.000 0.000 No. kpts 12 Spacing 0.07
REM Total runtime: 14588.5 s
REM Overall efficiency: 96.75 %
REM
REM
REM
REM compiler GCC version 4.9.2
REM options -cpp -iprefix /lustre/shared/ucl/apps/gcc/4.9.2/bin/../lib/gcc/x86_64-unknown-linux-gnu/4.9.2/ -mtune=corei7 -march=x86-64 -g -Og
REM COMMAND_LINE
REM seed -384732724 -1082216292 -2055039300 -1492267997 -1385379790 -1235976014 562857670 2135708226 414258174 325628820 524338709 1495529500
REM
REM S 3|1.8|5|6|7|30:31:32(qc=5)
REM O 2|1.5|12|13|15|20:21(qc=5)
REM Li 1|1.3|8|9|10|10U:20(qc=5)
REM Fe 3|2.2|2.0|1.0|8|9|10|40:41:32(qc=5)
REM 
CELL 1.54180    3.94931    7.52994    7.52994  129.87104   90.88278   90.88278
LATT -1
SFAC Li O  S  Fe 
Li     1 -0.2245130000000 -0.3249490000000 -0.3274350000000 1.0  -0.03
Li     1  0.2245130000000  0.3274350000000  0.3249490000000 1.0  -0.03
Li     1  0.7749440000000  0.1569250000000  0.4421590000000 1.0   0.03
Li     1 -0.7749440000000 -0.4421590000000 -0.1569250000000 1.0   0.03
O      2  0.0000000000000 -0.5746670000000  0.5746670000000 1.0   0.03
S      3 -0.2493810000000 -0.0701450000000 -0.4274560000000 1.0   0.11
S      3  0.2493810000000  0.4274560000000  0.0701450000000 1.0   0.11
S      3 -0.5000000000000 -0.0293530000000  0.0293530000000 1.0   0.24
Fe     4  0.7494890000000  0.2258420000000 -0.0228460000000 1.0   2.81
Fe     4 -0.7494890000000  0.0228460000000 -0.2258420000000 1.0   2.81
END
