TITL LFSO-Li2Fe4S4O-200911-231235-25c4ec -0.0329 414.818578 -1.10158380E+004 22.3449 23.1366 22 (P2) n - 1
REM
REM Run started: Mon, 14 Sep 2020 00:23:21 +0100 in /lustre/scratch/uccabz1/launch_tmp/launcher_2020-09-13-22-09-59-102352
REM CASTEP 20.1 from code version af48c487+ pr-geom-scf-spinfix Tue Jun 2 15:39:59 2020 +0100
REM Functional Perdew Burke Ernzerhof Relativity Koelling-Harmon Dispersion off
REM Cut-off 340.0000 eV Grid scale 1.7500 Gmax 16.5316 1/A FBSC none
REM MP grid 5 3 1 Offset 0.000 0.000 0.000 No. kpts 6 Spacing 0.07
REM Total runtime: 178704 s
REM Overall efficiency: 98.25 %
REM
REM
REM
REM compiler GCC version 4.9.2
REM options -cpp -iprefix /lustre/shared/ucl/apps/gcc/4.9.2/bin/../lib/gcc/x86_64-unknown-linux-gnu/4.9.2/ -mtune=corei7 -march=x86-64 -g -Og
REM COMMAND_LINE
REM seed 293170513 -2061366403 -1339721368 -1184821637 909472139 -2111330170 -1252368855 448468739 1133568855 1669318702 810786704 761177754
REM
REM S 3|1.8|5|6|7|30:31:32(qc=5)
REM O 2|1.5|12|13|15|20:21(qc=5)
REM Li 1|1.3|8|9|10|10U:20(qc=5)
REM Fe 3|2.2|2.0|1.0|8|9|10|40:41:32(qc=5)
REM 
CELL 1.54180    3.47432    7.22656   18.99451  119.56250   90.00000   90.00000
LATT -1
SFAC Li O  S  Fe 
Li     1 -0.6224690000000 -0.2491640000000  0.3998240000000 1.0   0.05
Li     1 -0.6224690000000  0.2491640000000 -0.3998240000000 1.0   0.05
Li     1 -0.1721990000000  0.1503760000000  0.3000590000000 1.0   0.04
Li     1 -0.1721990000000 -0.1503760000000 -0.3000590000000 1.0   0.04
O      2 -0.5848210000000  0.2089750000000  0.0394540000000 1.0   0.25
O      2 -0.5848210000000 -0.2089750000000 -0.0394540000000 1.0   0.25
S      3 -0.1178800000000 -0.5348950000000 -0.4040000000000 1.0   0.30
S      3 -0.1178800000000  0.5348950000000  0.4040000000000 1.0   0.30
S      3  0.3815090000000  0.3463880000000 -0.1281320000000 1.0  -0.05
S      3  0.3815090000000 -0.3463880000000  0.1281320000000 1.0  -0.05
S      3 -0.1135010000000 -0.1187720000000 -0.1666960000000 1.0   0.02
S      3 -0.1135010000000  0.1187720000000  0.1666960000000 1.0   0.02
S      3  0.3832990000000  0.0751230000000  0.3906910000000 1.0   0.20
S      3  0.3832990000000 -0.0751230000000 -0.3906910000000 1.0   0.20
Fe     4  0.3812980000000 -0.0198620000000  0.0742270000000 1.0   2.95
Fe     4  0.3812980000000  0.0198620000000 -0.0742270000000 1.0   2.95
Fe     4 -0.1166750000000 -0.2318380000000  0.0963680000000 1.0   0.75
Fe     4 -0.1166750000000  0.2318380000000 -0.0963680000000 1.0   0.75
Fe     4 -0.0815370000000  0.3731920000000  0.0464100000000 1.0   3.29
Fe     4 -0.0815370000000 -0.3731920000000 -0.0464100000000 1.0   3.29
Fe     4 -0.1159730000000 -0.3024360000000 -0.4590050000000 1.0   3.37
Fe     4 -0.1159730000000  0.3024360000000  0.4590050000000 1.0   3.37
END
