TITL LFSO-Li2Fe2SO3-200913-093233-3c0b76 -0.5796 243.821352 -7.48731116E+003 10.8903 11.7457 16 (C2) n - 1
REM
REM Run started: Mon, 14 Sep 2020 00:28:35 +0100 in /lustre/scratch/uccabz1/launch_tmp/launcher_2020-09-13-08-32-31-365533
REM CASTEP 20.1 from code version af48c487+ pr-geom-scf-spinfix Tue Jun 2 15:39:59 2020 +0100
REM Functional Perdew Burke Ernzerhof Relativity Koelling-Harmon Dispersion off
REM Cut-off 340.0000 eV Grid scale 1.7500 Gmax 16.5316 1/A FBSC none
REM MP grid 5 3 2 Offset 0.000 0.000 0.000 No. kpts 15 Spacing 0.07
REM Total runtime: 58580.9 s
REM Overall efficiency: 98.25 %
REM
REM
REM
REM compiler GCC version 4.9.2
REM options -cpp -iprefix /lustre/shared/ucl/apps/gcc/4.9.2/bin/../lib/gcc/x86_64-unknown-linux-gnu/4.9.2/ -mtune=corei7 -march=x86-64 -g -Og
REM COMMAND_LINE
REM seed 276897253 1907146809 316397555 -2012493773 1949900920 -889893339 -785287358 -1318591936 411792598 -1285498309 -999600002 1545043817
REM
REM S 3|1.8|5|6|7|30:31:32(qc=5)
REM O 2|1.5|12|13|15|20:21(qc=5)
REM Li 1|1.3|8|9|10|10U:20(qc=5)
REM Fe 3|2.2|2.0|1.0|8|9|10|40:41:32(qc=5)
REM 
CELL 1.54180    3.49483    5.98368   12.15747  104.09555   98.01105   91.01702
LATT -1
SFAC Li O  S  Fe 
Li     1 -0.4576880000000 -0.3680770000000  0.6156600000000 1.0   0.01
Li     1  1.0733480000000 -0.0162630000000  0.6156600000000 1.0   0.01
Li     1 -0.1298520000000  0.3228060000000  0.1941160000000 1.0   0.01
Li     1 -0.6760320000000 -0.1286900000000  0.1941160000000 1.0   0.01
O      2  0.1807610000000  0.2422050000000 -0.1430170000000 1.0   0.12
O      2 -0.3237790000000 -0.3852220000000 -0.1430170000000 1.0   0.12
O      2  0.0752610000000 -0.3632520000000 -0.3246210000000 1.0   0.35
O      2 -0.3998820000000  0.0386310000000 -0.3246210000000 1.0   0.35
O      2 -0.2073550000000 -0.1411940000000  0.1284830000000 1.0   0.21
O      2  0.3358380000000  0.2696770000000  0.1284830000000 1.0   0.21
S      3  0.2022950000000 -0.1337530000000  0.3979150000000 1.0  -0.11
S      3  0.1956200000000  0.5316680000000  0.3979150000000 1.0  -0.11
Fe     4 -0.3364570000000  0.1554340000000 -0.1783970000000 1.0   2.78
Fe     4  0.1580610000000 -0.3338300000000 -0.1783970000000 1.0   2.78
Fe     4  0.2523150000000  0.1252600000000 -0.0127210000000 1.0   2.06
Fe     4 -0.2650360000000 -0.1379820000000 -0.0127210000000 1.0   2.06
END
