TITL LFSO-Li2Fe4SO4-200912-002531-04ce6c -0.0675 263.058025 -5.90915826E+003 -8.76971 9.39542 11 (Cmmm) n - 1
REM
REM Run started: Sat, 12 Sep 2020 06:17:24 +0100 in /lustre/scratch/uccabz1/launch_tmp/launcher_2020-09-11-23-25-28-932086
REM CASTEP 20.1 from code version af48c487+ pr-geom-scf-spinfix Tue Jun 2 15:39:59 2020 +0100
REM Functional Perdew Burke Ernzerhof Relativity Koelling-Harmon Dispersion off
REM Cut-off 340.0000 eV Grid scale 1.7500 Gmax 16.5316 1/A FBSC none
REM MP grid 6 2 2 Offset 0.000 0.000 0.000 No. kpts 6 Spacing 0.07
REM Total runtime: 24456.3 s
REM Overall efficiency: 97.2308 %
REM
REM
REM
REM compiler GCC version 4.9.2
REM options -cpp -iprefix /lustre/shared/ucl/apps/gcc/4.9.2/bin/../lib/gcc/x86_64-unknown-linux-gnu/4.9.2/ -mtune=corei7 -march=x86-64 -g -Og
REM COMMAND_LINE
REM seed 241908682 -981355145 1029639723 1504838332 1029894164 434392616 215735246 -929685224 1713679511 1757616708 -304140625 1162393001
REM
REM S 3|1.8|5|6|7|30:31:32(qc=5)
REM O 2|1.5|12|13|15|20:21(qc=5)
REM Li 1|1.3|8|9|10|10U:20(qc=5)
REM Fe 3|2.2|2.0|1.0|8|9|10|40:41:32(qc=5)
REM 
CELL 1.54180    2.69100   13.58137   13.58137  147.99658   90.00000   90.00000
LATT -1
SFAC Li O  S  Fe 
Li     1 -0.5671350000000 -0.4065770000000  0.4065770000000 1.0   0.01
Li     1 -0.5671350000000  0.4065770000000 -0.4065770000000 1.0   0.01
O      2 -0.0705920000000 -0.2270200000000 -0.3885430000000 1.0  -0.13
O      2 -0.0705920000000  0.2270200000000  0.3885430000000 1.0  -0.13
O      2 -0.0705920000000 -0.3885430000000 -0.2270200000000 1.0  -0.13
O      2 -0.0705920000000  0.3885430000000  0.2270200000000 1.0  -0.13
S      3 -0.0708320000000  0.0000000000000  0.0000000000000 1.0  -0.04
Fe     4  0.4286590000000 -0.2275290000000 -0.1254200000000 1.0  -2.05
Fe     4  0.4286590000000  0.2275290000000  0.1254200000000 1.0  -2.05
Fe     4  0.4286590000000 -0.1254200000000 -0.2275290000000 1.0  -2.05
Fe     4  0.4286590000000  0.1254200000000  0.2275290000000 1.0  -2.05
END
