TITL LFSO-Li5FeS2O2-200920-220732-48baa4 -0.0366 316.241258 -6.69485227E+003 9.98409 10.0587 20 (P2/c) n - 1
REM
REM Run started: Mon, 21 Sep 2020 00:49:05 +0100 in /lustre/scratch/uccabz1/launch_tmp/launcher_2020-09-20-21-07-31-077332
REM CASTEP 20.1 from code version af48c487+ pr-geom-scf-spinfix Tue Jun 2 15:39:59 2020 +0100
REM Functional Perdew Burke Ernzerhof Relativity Koelling-Harmon Dispersion off
REM Cut-off 340.0000 eV Grid scale 1.7500 Gmax 16.5316 1/A FBSC none
REM MP grid 3 2 3 Offset 0.000 0.000 0.000 No. kpts 5 Spacing 0.07
REM Total runtime: 10765.8 s
REM Overall efficiency: 81.5 %
REM
REM
REM
REM compiler GCC version 4.9.2
REM options -cpp -iprefix /lustre/shared/ucl/apps/gcc/4.9.2/bin/../lib/gcc/x86_64-unknown-linux-gnu/4.9.2/ -mtune=corei7 -march=x86-64 -g -Og
REM COMMAND_LINE
REM seed 1571199021 732369573 1829465988 967775625 641331402 -1858658099 1199430438 -736324813 1719370602 -1564138511 -893232088 -250199760
REM
REM S 3|1.8|5|6|7|30:31:32(qc=5)
REM O 2|1.5|12|13|15|20:21(qc=5)
REM Li 1|1.3|8|9|10|10U:20(qc=5)
REM Fe 3|2.2|2.0|1.0|8|9|10|40:41:32(qc=5)
REM 
CELL 1.54180    6.41959    8.50171    5.85308   90.00000   98.12358   90.00000
LATT -1
SFAC Li O  S  Fe 
Li     1  0.0822300000000  0.0651840000000 -0.6499320000000 1.0  -0.02
Li     1  0.4177700000000  0.0651840000000  0.6499320000000 1.0  -0.02
Li     1 -0.0822300000000 -0.0651840000000  0.6499320000000 1.0  -0.02
Li     1 -0.4177700000000 -0.0651840000000 -0.6499320000000 1.0  -0.02
Li     1  0.4244460000000  0.3255580000000  0.3811900000000 1.0   0.03
Li     1  0.0755540000000  0.3255580000000 -0.3811900000000 1.0   0.03
Li     1 -0.4244460000000 -0.3255580000000 -0.3811900000000 1.0   0.03
Li     1 -0.0755540000000 -0.3255580000000  0.3811900000000 1.0   0.03
Li     1  0.2500000000000 -0.4557240000000  0.0000000000000 1.0  -0.02
Li     1 -0.2500000000000  0.4557240000000  0.0000000000000 1.0  -0.02
O      2 -0.1189720000000 -0.0965360000000  0.2789920000000 1.0   0.34
O      2 -0.3810280000000 -0.0965360000000 -0.2789920000000 1.0   0.34
O      2  0.1189720000000  0.0965360000000 -0.2789920000000 1.0   0.34
O      2  0.3810280000000  0.0965360000000  0.2789920000000 1.0   0.34
S      3  0.0513720000000  0.3515910000000  0.2107290000000 1.0   0.25
S      3  0.4486280000000  0.3515910000000 -0.2107290000000 1.0   0.25
S      3 -0.0513720000000 -0.3515910000000 -0.2107290000000 1.0   0.25
S      3 -0.4486280000000 -0.3515910000000  0.2107290000000 1.0   0.25
Fe     4 -0.2500000000000 -0.1786960000000  0.0000000000000 1.0   3.79
Fe     4  0.2500000000000  0.1786960000000  0.0000000000000 1.0   3.79
END
