TITL LFSO-Li4FeS2O-200910-124116-241064 0.3413 1410.466780 -5.41514054E+003 -5.99371 7.93480 16 (Cm) n - 1
REM
REM Run started: Fri, 11 Sep 2020 15:30:06 +0100 in /lustre/scratch/uccabz1/launch_tmp/launcher_2020-09-10-11-41-14-886453
REM CASTEP 20.1 from code version af48c487+ pr-geom-scf-spinfix Tue Jun 2 15:39:59 2020 +0100
REM Functional Perdew Burke Ernzerhof Relativity Koelling-Harmon Dispersion off
REM Cut-off 340.0000 eV Grid scale 1.7500 Gmax 16.5316 1/A FBSC none
REM MP grid 4 1 2 Offset 0.000 0.000 0.000 No. kpts 4 Spacing 0.07
REM Total runtime: 130229 s
REM Overall efficiency: 96.1667 %
REM
REM
REM
REM compiler GCC version 4.9.2
REM options -cpp -iprefix /lustre/shared/ucl/apps/gcc/4.9.2/bin/../lib/gcc/x86_64-unknown-linux-gnu/4.9.2/ -mtune=corei7 -march=x86-64 -g -Og
REM COMMAND_LINE
REM seed 820219262 1706259966 -1038354464 -1424883439 -606314588 -529131439 944461864 365438891 -640361425 1535161892 660227838 -1077073303
REM
REM S 3|1.8|5|6|7|30:31:32(qc=5)
REM O 2|1.5|12|13|15|20:21(qc=5)
REM Li 1|1.3|8|9|10|10U:20(qc=5)
REM Fe 3|2.2|2.0|1.0|8|9|10|40:41:32(qc=5)
REM 
CELL 1.54180    3.84825   47.34013   25.03298  161.00649   95.81586   90.00000
LATT -1
SFAC Li O  S  Fe 
Li     1  0.1673690000000 -0.0450560000000  0.3039220000000 1.0   0.35
Li     1  0.1673690000000  0.3489770000000  0.3039220000000 1.0   0.35
Li     1  0.3315230000000 -0.2395270000000 -0.0659380000000 1.0   0.06
Li     1  0.3315230000000  0.1735890000000 -0.0659380000000 1.0   0.06
Li     1 -0.4531120000000 -0.1286460000000  0.2701060000000 1.0   0.03
Li     1 -0.4531120000000  0.3987530000000  0.2701060000000 1.0   0.03
Li     1  0.1365580000000  0.5889250000000 -0.3497570000000 1.0  -0.02
Li     1  0.1365580000000  0.0613180000000 -0.3497570000000 1.0  -0.02
O      2  0.4094390000000 -0.2118020000000  0.0614860000000 1.0  -0.23
O      2  0.4094390000000  0.2732880000000  0.0614860000000 1.0  -0.23
S      3 -0.2634900000000  0.1156590000000 -0.2023180000000 1.0  -0.06
S      3 -0.2634900000000 -0.3179770000000 -0.2023180000000 1.0  -0.06
S      3  0.1183900000000 -0.0575510000000  0.3728370000000 1.0  -0.06
S      3  0.1183900000000 -0.5696120000000  0.3728370000000 1.0  -0.06
Fe     4 -0.0911750000000 -0.2095240000000  0.0612190000000 1.0  -3.07
Fe     4 -0.0911750000000  0.2707430000000  0.0612190000000 1.0  -3.07
END
