TITL LFSO-LiFeSO-200909-034617-9b42fb -0.0442 290.899122 -9.02324951E+003 15.1013 16.1505 20 (Pm) n - 1
REM
REM Run started: Wed, 09 Sep 2020 18:29:53 +0100 in /lustre/scratch/uccabz1/launch_tmp/launcher_2020-09-09-02-46-15-292439
REM CASTEP 20.1 from code version af48c487+ pr-geom-scf-spinfix Tue Jun 2 15:39:59 2020 +0100
REM Functional Perdew Burke Ernzerhof Relativity Koelling-Harmon Dispersion off
REM Cut-off 340.0000 eV Grid scale 1.7500 Gmax 16.5316 1/A FBSC none
REM MP grid 5 2 2 Offset 0.000 0.000 0.000 No. kpts 5 Spacing 0.07
REM Total runtime: 54970.5 s
REM Overall efficiency: 79.8182 %
REM
REM
REM
REM compiler GCC version 4.9.2
REM options -cpp -iprefix /lustre/shared/ucl/apps/gcc/4.9.2/bin/../lib/gcc/x86_64-unknown-linux-gnu/4.9.2/ -mtune=corei7 -march=x86-64 -g -Og
REM COMMAND_LINE
REM seed 276885390 -209231928 411848436 -1445716143 -1119046433 -1388676150 -495449461 1576893529 160746856 -1946251021 -1612822524 -837882070
REM
REM S 3|1.8|5|6|7|30:31:32(qc=5)
REM O 2|1.5|12|13|15|20:21(qc=5)
REM Li 1|1.3|8|9|10|10U:20(qc=5)
REM Fe 3|2.2|2.0|1.0|8|9|10|40:41:32(qc=5)
REM 
CELL 1.54180    2.95456   10.27470    9.58384   90.00000   90.00000   90.94551
LATT -1
SFAC Li O  S  Fe 
Li     1 -0.4705950000000 -0.5420790000000  0.1577960000000 1.0  -0.02
Li     1 -0.4705950000000 -0.5420790000000 -0.1577960000000 1.0  -0.02
Li     1  0.2798600000000 -0.1876120000000 -0.1129060000000 1.0  -0.04
Li     1  0.2798600000000 -0.1876120000000  0.1129060000000 1.0  -0.04
Li     1  0.2818810000000  0.0101550000000  0.0000000000000 1.0   0.00
O      2  0.3146270000000 -0.1633020000000  0.3171630000000 1.0   0.24
O      2  0.3146270000000 -0.1633020000000 -0.3171630000000 1.0   0.24
O      2  0.3942550000000  0.4838220000000 -0.3668300000000 1.0   0.10
O      2  0.3942550000000  0.4838220000000  0.3668300000000 1.0   0.10
O      2 -0.2218460000000 -0.1094290000000  0.0000000000000 1.0   0.02
S      3  0.3588040000000  0.2057200000000 -0.1693710000000 1.0  -0.10
S      3  0.3588040000000  0.2057200000000  0.1693710000000 1.0  -0.10
S      3 -0.1533270000000  0.1565170000000 -0.3371100000000 1.0  -0.00
S      3 -0.1533270000000  0.1565170000000  0.3371100000000 1.0  -0.00
S      3  0.0486270000000 -0.4300450000000  0.0000000000000 1.0   0.05
Fe     4  0.3514510000000 -0.3347320000000  0.3768770000000 1.0   3.11
Fe     4  0.3514510000000 -0.3347320000000 -0.3768770000000 1.0   3.11
Fe     4 -0.1797410000000 -0.0549900000000  0.3733450000000 1.0   3.01
Fe     4 -0.1797410000000 -0.0549900000000 -0.3733450000000 1.0   3.01
Fe     4 -0.1074580000000 -0.5097920000000  0.5000000000000 1.0   2.42
END
