TITL LFSO-LiFeSO-200909-030200-663578 0.0216 322.526935 -9.02714285E+003 -1.26707 16.5514 20 (Cm) n - 1
REM
REM Run started: Wed, 09 Sep 2020 23:01:57 +0100 in /lustre/scratch/uccabz1/launch_tmp/launcher_2020-09-09-02-01-58-737449
REM CASTEP 20.1 from code version af48c487+ pr-geom-scf-spinfix Tue Jun 2 15:39:59 2020 +0100
REM Functional Perdew Burke Ernzerhof Relativity Koelling-Harmon Dispersion off
REM Cut-off 340.0000 eV Grid scale 1.7500 Gmax 16.5316 1/A FBSC none
REM MP grid 3 2 2 Offset 0.000 0.000 0.000 No. kpts 5 Spacing 0.07
REM Total runtime: 74609 s
REM Overall efficiency: 76.7 %
REM
REM
REM
REM compiler GCC version 4.9.2
REM options -cpp -iprefix /lustre/shared/ucl/apps/gcc/4.9.2/bin/../lib/gcc/x86_64-unknown-linux-gnu/4.9.2/ -mtune=corei7 -march=x86-64 -g -Og
REM COMMAND_LINE
REM seed -805583504 835257293 259234893 -1833272600 -352645887 -1671009359 814828989 1060729162 -1973566267 -361869557 -727496810 931459344
REM
REM S 3|1.8|5|6|7|30:31:32(qc=5)
REM O 2|1.5|12|13|15|20:21(qc=5)
REM Li 1|1.3|8|9|10|10U:20(qc=5)
REM Fe 3|2.2|2.0|1.0|8|9|10|40:41:32(qc=5)
REM 
CELL 1.54180    6.09735    7.84151    7.84151   98.08984   71.06776   71.06776
LATT -1
SFAC Li O  S  Fe 
Li     1  0.3327520000000 -0.0393710000000  0.2447770000000 1.0   0.01
Li     1  0.3327520000000  0.2447770000000 -0.0393710000000 1.0   0.01
Li     1  0.2859540000000 -0.3324210000000 -0.0220160000000 1.0  -0.00
Li     1  0.2859540000000 -0.0220160000000 -0.3324210000000 1.0  -0.00
Li     1 -0.3136920000000 -0.3092280000000 -0.3092280000000 1.0   0.02
O      2 -0.3620530000000 -0.4947200000000 -0.1816210000000 1.0   0.10
O      2 -0.3620530000000 -0.1816210000000 -0.4947200000000 1.0   0.10
O      2  0.0071870000000 -0.5572230000000  0.0718710000000 1.0   0.01
O      2  0.0071870000000  0.0718710000000 -0.5572230000000 1.0   0.01
O      2 -0.0896900000000  0.4584330000000  0.4584330000000 1.0  -0.23
S      3  0.4142600000000  0.2707320000000 -0.4103980000000 1.0   0.04
S      3  0.4142600000000 -0.4103980000000  0.2707320000000 1.0   0.04
S      3 -0.1837640000000  0.1348230000000 -0.1499620000000 1.0   0.22
S      3 -0.1837640000000 -0.1499620000000  0.1348230000000 1.0   0.22
S      3  0.3442970000000 -0.0530690000000 -0.0530690000000 1.0   0.02
Fe     4 -0.2461820000000 -0.0000550000000  0.4226640000000 1.0   3.37
Fe     4 -0.2461820000000  0.4226640000000 -0.0000550000000 1.0   3.37
Fe     4 -0.1991920000000  0.2905900000000 -0.3762860000000 1.0  -2.72
Fe     4 -0.1991920000000 -0.3762860000000  0.2905900000000 1.0  -2.72
Fe     4  0.2284460000000  0.4284230000000  0.4284230000000 1.0  -3.13
END
