TITL LFSO-Li3Fe3SO5-201001-222658-892638 -0.0293 402.817926 -1.13648628E+004 21.2001 21.6420 24 (P1) n - 1
REM
REM Run started: Fri, 02 Oct 2020 04:51:02 +0100 in /scratch/scratch/mmm0366/launch_tmp/launcher_2020-10-01-21-26-56-562140
REM CASTEP 19.11| from code version Version unavailable
REM Functional Perdew Burke Ernzerhof Relativity Koelling-Harmon Dispersion off
REM Cut-off 340.0000 eV Grid scale 1.7500 Gmax 16.5316 1/A FBSC none
REM MP grid 5 2 2 Offset 0.000 0.000 0.000 No. kpts 3 Spacing 0.07
REM Total runtime: 23212.8 s
REM Overall efficiency: 80.2857 %
REM
REM
REM
REM compiler GCC version 4.9.2
REM options -cpp -iprefix /scratch/UCL/applications/gcc/4.9.2/bin/../lib/gcc/x86_64-unknown-linux-gnu/4.9.2/ -mtune=corei7 -march=x86-64 -g -O2
REM COMMAND_LINE
REM seed 99241590 -1361316123 1992678949 -1034206240 683997204 24635009 -124433982 -332900530 -1827619337 -312247672 1659090856 -671185698
REM
REM S 3|1.8|5|6|7|30:31:32(qc=5)
REM O 2|1.5|12|13|15|20:21(qc=5)
REM Li 1|1.3|8|9|10|10U:20(qc=5)
REM Fe 3|2.2|2.0|1.0|8|9|10|40:41:32(qc=5)
REM 
CELL 1.54180    3.47055    8.32943   13.93464   90.00000   90.00000   90.00000
LATT -1
SFAC Li O  S  Fe 
Li     1 -0.0191750000000  0.2828830000000 -0.0150810000000 1.0  -0.04
Li     1  0.0191750000000 -0.2828830000000 -0.0150810000000 1.0  -0.04
Li     1 -0.4808250000000  0.2828830000000 -0.5150810000000 1.0  -0.04
Li     1  0.4808250000000 -0.2828830000000 -0.5150810000000 1.0  -0.04
Li     1 -0.0000000000000  0.0000000000000 -0.0754640000000 1.0   0.01
Li     1  0.5000000000000  0.0000000000000  0.4245360000000 1.0   0.01
O      2  0.0171740000000 -0.2231170000000  0.1167810000000 1.0   0.27
O      2 -0.0171740000000  0.2231170000000  0.1167810000000 1.0   0.27
O      2 -0.5171740000000 -0.2231170000000 -0.3832190000000 1.0   0.27
O      2  0.5171740000000  0.2231170000000 -0.3832190000000 1.0   0.27
O      2  0.4808440000000  0.1841010000000 -0.0275530000000 1.0   0.25
O      2 -0.4808440000000 -0.1841010000000 -0.0275530000000 1.0   0.25
O      2  0.0191560000000  0.1841010000000  0.4724470000000 1.0   0.25
O      2 -0.0191560000000 -0.1841010000000  0.4724470000000 1.0   0.25
O      2 -0.0000000000000 -0.5000000000000 -0.0685750000000 1.0   0.27
O      2 -0.5000000000000  0.5000000000000  0.4314250000000 1.0   0.27
S      3 -0.0000000000000  0.0000000000000 -0.2661710000000 1.0   0.11
S      3 -0.5000000000000  0.0000000000000  0.2338290000000 1.0   0.11
Fe     4 -0.0177870000000 -0.1614220000000 -0.3947710000000 1.0   2.78
Fe     4  0.0177870000000  0.1614220000000 -0.3947710000000 1.0   2.78
Fe     4 -0.4822130000000 -0.1614220000000  0.1052290000000 1.0   2.78
Fe     4  0.4822130000000  0.1614220000000  0.1052290000000 1.0   2.78
Fe     4 -0.5000000000000  0.5000000000000 -0.0908000000000 1.0   3.70
Fe     4 -0.0000000000000 -0.5000000000000 -0.5908000000000 1.0   3.70
END
