TITL LFSO-Li5FeSO3-200910-065900-7997c0 -0.0920 643.135655 -6.95590729E+003 6.05096 6.91298 20 (Pm) n - 1
REM
REM Run started: Fri, 11 Sep 2020 01:02:22 +0100 in /lustre/scratch/uccabz1/launch_tmp/launcher_2020-09-10-05-58-58-310051
REM CASTEP 20.1 from code version af48c487+ pr-geom-scf-spinfix Tue Jun 2 15:39:59 2020 +0100
REM Functional Perdew Burke Ernzerhof Relativity Koelling-Harmon Dispersion off
REM Cut-off 340.0000 eV Grid scale 1.7500 Gmax 16.5316 1/A FBSC none
REM MP grid 5 1 2 Offset 0.000 0.000 0.000 No. kpts 5 Spacing 0.07
REM Total runtime: 80101.9 s
REM Overall efficiency: 71 %
REM
REM
REM
REM compiler GCC version 4.9.2
REM options -cpp -iprefix /lustre/shared/ucl/apps/gcc/4.9.2/bin/../lib/gcc/x86_64-unknown-linux-gnu/4.9.2/ -mtune=corei7 -march=x86-64 -g -Og
REM COMMAND_LINE
REM seed 1020593430 1564029486 -1368352719 150031853 -729272767 -257964840 -1503974736 -820546411 -122525150 -2103734492 265875791 -1780984677
REM
REM S 3|1.8|5|6|7|30:31:32(qc=5)
REM O 2|1.5|12|13|15|20:21(qc=5)
REM Li 1|1.3|8|9|10|10U:20(qc=5)
REM Fe 3|2.2|2.0|1.0|8|9|10|40:41:32(qc=5)
REM 
CELL 1.54180    3.56161   19.51308   10.01747   90.00000   67.48653   90.00000
LATT -1
SFAC Li O  S  Fe 
Li     1 -0.1352390000000 -0.3015590000000  0.4383200000000 1.0  -0.02
Li     1 -0.1352390000000  0.3015590000000  0.4383200000000 1.0  -0.02
Li     1 -0.1994390000000  0.1766120000000  0.4947260000000 1.0  -0.01
Li     1 -0.1994390000000 -0.1766120000000  0.4947260000000 1.0  -0.01
Li     1 -0.4731080000000  0.2107550000000  0.2811900000000 1.0   0.01
Li     1 -0.4731080000000 -0.2107550000000  0.2811900000000 1.0   0.01
Li     1  0.1519390000000  0.2891960000000  0.1521900000000 1.0  -0.19
Li     1  0.1519390000000 -0.2891960000000  0.1521900000000 1.0  -0.19
Li     1 -0.5188510000000 -0.2774490000000 -0.1828700000000 1.0  -0.02
Li     1 -0.5188510000000  0.2774490000000 -0.1828700000000 1.0  -0.02
O      2  0.0368970000000  0.2560470000000 -0.2371270000000 1.0   0.01
O      2  0.0368970000000 -0.2560470000000 -0.2371270000000 1.0   0.01
O      2  0.0035720000000  0.2275110000000  0.3038750000000 1.0  -0.00
O      2  0.0035720000000 -0.2275110000000  0.3038750000000 1.0  -0.00
O      2  0.3162090000000 -0.3419420000000 -0.0162220000000 1.0   0.16
O      2  0.3162090000000  0.3419420000000 -0.0162220000000 1.0   0.16
S      3  0.2116420000000  0.2463320000000 -0.4183650000000 1.0  -0.00
S      3  0.2116420000000 -0.2463320000000 -0.4183650000000 1.0  -0.00
Fe     4 -0.1919730000000 -0.3582260000000 -0.0083440000000 1.0   3.09
Fe     4 -0.1919730000000  0.3582260000000 -0.0083440000000 1.0   3.09
END
