TITL LFSO-Li4FeSO2-200910-083155-860b22 -0.0333 457.973951 -8.52803812E+003 -10.0822 10.4226 24 (P3) n - 1
REM
REM Run started: Thu, 10 Sep 2020 19:41:30 +0100 in /lustre/scratch/uccabz1/launch_tmp/launcher_2020-09-10-07-31-53-550350
REM CASTEP 20.1 from code version af48c487+ pr-geom-scf-spinfix Tue Jun 2 15:39:59 2020 +0100
REM Functional Perdew Burke Ernzerhof Relativity Koelling-Harmon Dispersion off
REM Cut-off 340.0000 eV Grid scale 1.7500 Gmax 16.5316 1/A FBSC none
REM MP grid 3 3 2 Offset 0.000 0.000 0.000 No. kpts 5 Spacing 0.07
REM Total runtime: 40417.1 s
REM Overall efficiency: 70.3333 %
REM
REM
REM
REM compiler GCC version 4.9.2
REM options -cpp -iprefix /lustre/shared/ucl/apps/gcc/4.9.2/bin/../lib/gcc/x86_64-unknown-linux-gnu/4.9.2/ -mtune=corei7 -march=x86-64 -g -Og
REM COMMAND_LINE
REM seed -1637763906 904000046 521129866 -1470031791 -1909271221 -1597477202 1514747134 -1828011876 894321113 -1299105674 489104570 -1355358813
REM
REM S 3|1.8|5|6|7|30:31:32(qc=5)
REM O 2|1.5|12|13|15|20:21(qc=5)
REM Li 1|1.3|8|9|10|10U:20(qc=5)
REM Fe 3|2.2|2.0|1.0|8|9|10|40:41:32(qc=5)
REM 
CELL 1.54180    7.62620    7.62620    9.09273   90.00000   90.00000  120.00000
LATT -1
SFAC Li O  S  Fe 
Li     1  0.2403030000000  0.0595330000000 -0.1124290000000 1.0   0.01
Li     1 -0.0595330000000  0.1807710000000 -0.1124290000000 1.0   0.01
Li     1 -0.1807710000000 -0.2403030000000 -0.1124290000000 1.0   0.01
Li     1 -0.0369740000000  0.1799210000000  0.3871980000000 1.0  -0.01
Li     1 -0.1799210000000 -0.2168950000000  0.3871980000000 1.0  -0.01
Li     1  0.2168950000000  0.0369740000000  0.3871980000000 1.0  -0.01
Li     1 -0.3107850000000 -0.0654700000000 -0.3710120000000 1.0  -0.00
Li     1  0.0654700000000 -0.2453150000000 -0.3710120000000 1.0  -0.00
Li     1  0.2453150000000  0.3107850000000 -0.3710120000000 1.0  -0.00
Li     1  0.3371380000000  0.4229620000000  0.2816100000000 1.0  -0.00
Li     1 -0.4229620000000 -0.0858230000000  0.2816100000000 1.0  -0.00
Li     1  0.0858230000000 -0.3371380000000  0.2816100000000 1.0  -0.00
O      2 -0.2797020000000 -0.0642280000000 -0.1711530000000 1.0  -0.19
O      2  0.0642280000000 -0.2154740000000 -0.1711530000000 1.0  -0.19
O      2  0.2154740000000  0.2797020000000 -0.1711530000000 1.0  -0.19
O      2 -0.2720130000000 -0.0448170000000  0.4362440000000 1.0  -0.01
O      2  0.0448170000000 -0.2271970000000  0.4362440000000 1.0  -0.01
O      2  0.2271970000000  0.2720130000000  0.4362440000000 1.0  -0.01
S      3 -0.3969490000000 -0.3601920000000  0.1121490000000 1.0  -0.19
S      3  0.3601920000000 -0.0367570000000  0.1121490000000 1.0  -0.19
S      3  0.0367570000000  0.3969490000000  0.1121490000000 1.0  -0.19
Fe     4  0.1559700000000 -0.3190170000000 -0.0305760000000 1.0  -2.97
Fe     4  0.3190170000000 -0.5250130000000 -0.0305760000000 1.0  -2.97
Fe     4  0.5250130000000 -0.1559700000000 -0.0305760000000 1.0  -2.97
END
