TITL LFSO-Li2Fe3S3O-200912-193856-bf179b 0.0179 223.225462 -4.33935233E+003 11.8857 12.0142 9 (R3) n - 1
REM
REM Run started: Sat, 12 Sep 2020 23:22:12 +0100 in /lustre/scratch/uccabz1/launch_tmp/launcher_2020-09-12-18-37-41-336792
REM CASTEP 20.1 from code version af48c487+ pr-geom-scf-spinfix Tue Jun 2 15:39:59 2020 +0100
REM Functional Perdew Burke Ernzerhof Relativity Koelling-Harmon Dispersion off
REM Cut-off 340.0000 eV Grid scale 1.7500 Gmax 16.5316 1/A FBSC none
REM MP grid 3 3 3 Offset 0.000 0.000 0.000 No. kpts 6 Spacing 0.07
REM Total runtime: 14869.7 s
REM Overall efficiency: 96.4615 %
REM
REM
REM
REM compiler GCC version 4.9.2
REM options -cpp -iprefix /lustre/shared/ucl/apps/gcc/4.9.2/bin/../lib/gcc/x86_64-unknown-linux-gnu/4.9.2/ -mtune=corei7 -march=x86-64 -g -Og
REM COMMAND_LINE
REM seed 453370340 227495892 -899466222 -620347396 502195710 -455381473 -1635329042 778085435 91588537 -1798635712 -1172556007 1972801677
REM
REM S 3|1.8|5|6|7|30:31:32(qc=5)
REM O 2|1.5|12|13|15|20:21(qc=5)
REM Li 1|1.3|8|9|10|10U:20(qc=5)
REM Fe 3|2.2|2.0|1.0|8|9|10|40:41:32(qc=5)
REM 
CELL 1.54180    6.07369    6.07369    6.07369   87.10287   87.10287   87.10287
LATT -1
SFAC Li O  S  Fe 
Li     1 -0.4239480000000 -0.4239480000000 -0.4239480000000 1.0  -0.01
Li     1 -0.0793260000000 -0.0793260000000 -0.0793260000000 1.0  -0.05
O      2  0.1076310000000  0.1076310000000  0.1076310000000 1.0   0.33
S      3 -0.1895410000000  0.2458290000000 -0.3245110000000 1.0   0.25
S      3  0.2458290000000 -0.3245110000000 -0.1895410000000 1.0   0.25
S      3 -0.3245110000000 -0.1895410000000  0.2458290000000 1.0   0.25
Fe     4  0.0999050000000  0.3439970000000 -0.1164230000000 1.0   3.62
Fe     4  0.3439970000000 -0.1164230000000  0.0999050000000 1.0   3.62
Fe     4 -0.1164230000000  0.0999050000000  0.3439970000000 1.0   3.62
END
