TITL LFSO-Li4Fe2SO3-200910-211909-17efcb -0.0108 125.790109 -4.14438027E+003 6.06550 6.42807 10 (C2) n - 1
REM
REM Run started: Thu, 10 Sep 2020 21:54:51 +0100 in /lustre/scratch/uccabz1/launch_tmp/launcher_2020-09-10-20-19-07-330033
REM CASTEP 20.1 from code version af48c487+ pr-geom-scf-spinfix Tue Jun 2 15:39:59 2020 +0100
REM Functional Perdew Burke Ernzerhof Relativity Koelling-Harmon Dispersion off
REM Cut-off 340.0000 eV Grid scale 1.7500 Gmax 16.5316 1/A FBSC none
REM MP grid 4 3 3 Offset 0.000 0.000 0.000 No. kpts 12 Spacing 0.07
REM Total runtime: 2413.28 s
REM Overall efficiency: 93.1667 %
REM
REM
REM
REM compiler GCC version 4.9.2
REM options -cpp -iprefix /lustre/shared/ucl/apps/gcc/4.9.2/bin/../lib/gcc/x86_64-unknown-linux-gnu/4.9.2/ -mtune=corei7 -march=x86-64 -g -Og
REM COMMAND_LINE
REM seed -712627544 -293742580 -632695892 -860135469 -853516230 -89796602 -1840718503 2119978085 1210041645 -114025110 1944680050 376004375
REM
REM S 3|1.8|5|6|7|30:31:32(qc=5)
REM O 2|1.5|12|13|15|20:21(qc=5)
REM Li 1|1.3|8|9|10|10U:20(qc=5)
REM Fe 3|2.2|2.0|1.0|8|9|10|40:41:32(qc=5)
REM 
CELL 1.54180    4.81557    5.69795    5.69795   72.55385   64.32990   64.32990
LATT -1
SFAC Li O  S  Fe 
Li     1  0.2009090000000  0.3734250000000 -0.1261850000000 1.0  -0.09
Li     1 -0.2009090000000  0.1261850000000 -0.3734250000000 1.0  -0.09
Li     1 -0.1954040000000 -0.3760060000000  0.2919970000000 1.0  -0.03
Li     1  0.1954040000000 -0.2919970000000  0.3760060000000 1.0  -0.03
O      2 -0.7189050000000 -0.4925590000000  0.1087710000000 1.0   0.13
O      2  0.7189050000000 -0.1087710000000  0.4925590000000 1.0   0.13
O      2  0.5000000000000  0.4556350000000 -0.4556350000000 1.0   0.09
S      3 -0.5000000000000 -0.0455430000000  0.0455430000000 1.0   0.04
Fe     4 -0.5021350000000 -0.3004680000000 -0.2031010000000 1.0   2.95
Fe     4  0.5021350000000  0.2031010000000  0.3004680000000 1.0   2.95
END
