TITL LFSO-Li4Fe3S4O-200925-201817-7d9406 0.1749 192.903955 -5.04449154E+003 10.4350 10.5726 12 (C2) n - 1
REM
REM Run started: Sat, 26 Sep 2020 07:50:49 +0100 in /lustre/scratch/uccabz1/launch_tmp/launcher_2020-09-26-06-18-08-497523
REM CASTEP 20.1 from code version af48c487+ pr-geom-scf-spinfix Tue Jun 2 15:39:59 2020 +0100
REM Functional Perdew Burke Ernzerhof Relativity Koelling-Harmon Dispersion off
REM Cut-off 340.0000 eV Grid scale 1.7500 Gmax 16.5316 1/A FBSC none
REM MP grid 3 4 4 Offset 0.000 0.000 0.000 No. kpts 16 Spacing 0.07
REM Total runtime: 38966.7 s
REM Overall efficiency: 80.6923 %
REM
REM
REM
REM compiler GCC version 4.9.2
REM options -cpp -iprefix /lustre/shared/ucl/apps/gcc/4.9.2/bin/../lib/gcc/x86_64-unknown-linux-gnu/4.9.2/ -mtune=corei7 -march=x86-64 -g -Og
REM COMMAND_LINE
REM seed 1723044258 -1787526503 518043566 118030225 -1236057547 -373110215 -502322659 676834626 -2013574480 -2084581605 -731872696 301326594
REM
REM S 3|1.8|5|6|7|30:31:32(qc=5)
REM O 2|1.5|12|13|15|20:21(qc=5)
REM Li 1|1.3|8|9|10|10U:20(qc=5)
REM Fe 3|2.2|2.0|1.0|8|9|10|40:41:32(qc=5)
REM 
CELL 1.54180    9.13901    7.36863    7.36863   40.20111   41.43823   41.43823
LATT -1
SFAC Li O  S  Fe 
Li     1 -0.2001190000000  0.3143010000000  0.3710130000000 1.0   0.03
Li     1  0.2001190000000 -0.3710130000000 -0.3143010000000 1.0   0.03
Li     1 -0.3604450000000 -0.2128890000000 -0.1599790000000 1.0   0.01
Li     1  0.3604450000000  0.1599790000000  0.2128890000000 1.0   0.01
O      2  0.0000000000000  0.4874720000000 -0.4874720000000 1.0   0.28
S      3 -0.2144050000000 -0.0745470000000 -0.0958250000000 1.0   0.21
S      3  0.2144050000000  0.0958250000000  0.0745470000000 1.0   0.21
S      3 -0.3802270000000  0.2364070000000  0.3022640000000 1.0   0.15
S      3  0.3802270000000 -0.3022640000000 -0.2364070000000 1.0   0.15
Fe     4 -0.2178640000000  0.2930520000000 -0.1753490000000 1.0   3.25
Fe     4  0.2178640000000  0.1753490000000 -0.2930520000000 1.0   3.25
Fe     4  0.0000000000000 -0.1334600000000  0.1334600000000 1.0   2.86
END
