TITL LFSO-LiFe3S4O-200909-103532-c77754 0.0300 188.601531 -4.44206365E+003 8.77995 9.40561 9 (R3) n - 1
REM
REM Run started: Wed, 09 Sep 2020 12:54:40 +0100 in /lustre/scratch/uccabz1/launch_tmp/launcher_2020-09-09-09-35-30-517789
REM CASTEP 20.1 from code version af48c487+ pr-geom-scf-spinfix Tue Jun 2 15:39:59 2020 +0100
REM Functional Perdew Burke Ernzerhof Relativity Koelling-Harmon Dispersion off
REM Cut-off 340.0000 eV Grid scale 1.7500 Gmax 16.5316 1/A FBSC none
REM MP grid 3 3 3 Offset 0.000 0.000 0.000 No. kpts 6 Spacing 0.07
REM Total runtime: 8553.93 s
REM Overall efficiency: 95.6364 %
REM
REM
REM
REM compiler GCC version 4.9.2
REM options -cpp -iprefix /lustre/shared/ucl/apps/gcc/4.9.2/bin/../lib/gcc/x86_64-unknown-linux-gnu/4.9.2/ -mtune=corei7 -march=x86-64 -g -Og
REM COMMAND_LINE
REM seed 1642943401 -1393902785 -637621111 -1677115048 2005393397 -301886280 59667718 -686099711 -770875180 172733730 -1280586085 -638177836
REM
REM S 3|1.8|5|6|7|30:31:32(qc=5)
REM O 2|1.5|12|13|15|20:21(qc=5)
REM Li 1|1.3|8|9|10|10U:20(qc=5)
REM Fe 3|2.2|2.0|1.0|8|9|10|40:41:32(qc=5)
REM 
CELL 1.54180    6.23715    6.23715    6.23715   64.52718   64.52717   64.52717
LATT -1
SFAC Li O  S  Fe 
Li     1 -0.4035830000000 -0.4035830000000 -0.4035830000000 1.0  -0.08
O      2  0.4651180000000  0.4651180000000  0.4651180000000 1.0   0.12
S      3 -0.0015370000000  0.4793990000000 -0.2411990000000 1.0   0.03
S      3  0.4793990000000 -0.2411990000000 -0.0015370000000 1.0   0.03
S      3 -0.2411990000000 -0.0015370000000  0.4793990000000 1.0   0.03
S      3  0.0155570000000  0.0155570000000  0.0155570000000 1.0  -0.00
Fe     4 -0.2695470000000  0.3619270000000  0.1596030000000 1.0   2.89
Fe     4  0.3619270000000  0.1596030000000 -0.2695470000000 1.0   2.89
Fe     4  0.1596030000000 -0.2695470000000  0.3619270000000 1.0   2.89
END
