TITL LFSO-Li3Fe3S4O2-200929-011951-fa6e87 -0.0465 183.186395 -5.28104521E+003 2.91947 3.24460 12 (R3m) n - 1
REM
REM Run started: Tue, 29 Sep 2020 04:55:48 +0100 in /lustre/scratch/uccabz1/launch_tmp/launcher_2020-09-29-00-19-50-148707
REM CASTEP 20.1 from code version af48c487+ pr-geom-scf-spinfix Tue Jun 2 15:39:59 2020 +0100
REM Functional Perdew Burke Ernzerhof Relativity Koelling-Harmon Dispersion off
REM Cut-off 340.0000 eV Grid scale 1.7500 Gmax 16.5316 1/A FBSC none
REM MP grid 3 3 3 Offset 0.000 0.000 0.000 No. kpts 6 Spacing 0.07
REM Total runtime: 14669 s
REM Overall efficiency: 97.5556 %
REM
REM
REM
REM compiler GCC version 4.9.2
REM options -cpp -iprefix /lustre/shared/ucl/apps/gcc/4.9.2/bin/../lib/gcc/x86_64-unknown-linux-gnu/4.9.2/ -mtune=corei7 -march=x86-64 -g -Og
REM COMMAND_LINE
REM seed 1314755399 1084837168 889741686 967906866 -258100175 -2125203656 -1012550832 891120298 147580670 -1382450211 1987234044 2100596125
REM
REM S 3|1.8|5|6|7|30:31:32(qc=5)
REM O 2|1.5|12|13|15|20:21(qc=5)
REM Li 1|1.3|8|9|10|10U:20(qc=5)
REM Fe 3|2.2|2.0|1.0|8|9|10|40:41:32(qc=5)
REM 
CELL 1.54180    6.67255    6.67255    6.67255   54.51072   54.51072   54.51072
LATT -1
SFAC Li O  S  Fe 
Li     1 -0.0667020000000 -0.5114970000000 -0.0550390000000 1.0   0.02
Li     1 -0.0550390000000 -0.0667020000000 -0.5114970000000 1.0   0.02
Li     1 -0.5114970000000 -0.0550390000000 -0.0667020000000 1.0   0.02
O      2  0.0173050000000  0.0173050000000  0.0173050000000 1.0  -0.02
O      2 -0.1295900000000 -0.1295900000000 -0.1295900000000 1.0   0.07
S      3 -0.4876180000000  0.5149790000000  0.0036990000000 1.0   0.09
S      3  0.0036990000000 -0.4876180000000  0.5149790000000 1.0   0.09
S      3  0.5149790000000  0.0036990000000 -0.4876180000000 1.0   0.09
S      3  0.2050110000000  0.2050110000000  0.2050110000000 1.0  -0.03
Fe     4 -0.3393320000000  0.0986980000000  0.0960670000000 1.0   0.86
Fe     4  0.0960670000000 -0.3393320000000  0.0986980000000 1.0   0.86
Fe     4  0.0986980000000  0.0960670000000 -0.3393320000000 1.0   0.86
END
