TITL LFSO-Li6FeSO3-200909-222505-1fd69d -0.2681 422.303030 -7.35234824E+003 6.00003 6.94457 22 (Cm) n - 1
REM
REM Run started: Thu, 10 Sep 2020 23:03:44 +0100 in /lustre/scratch/uccabz1/launch_tmp/launcher_2020-09-09-21-25-01-833222
REM CASTEP 20.1 from code version af48c487+ pr-geom-scf-spinfix Tue Jun 2 15:39:59 2020 +0100
REM Functional Perdew Burke Ernzerhof Relativity Koelling-Harmon Dispersion off
REM Cut-off 340.0000 eV Grid scale 1.7500 Gmax 16.5316 1/A FBSC none
REM MP grid 3 3 2 Offset 0.000 0.000 0.000 No. kpts 6 Spacing 0.07
REM Total runtime: 95926.5 s
REM Overall efficiency: 97.75 %
REM
REM
REM
REM compiler GCC version 4.9.2
REM options -cpp -iprefix /lustre/shared/ucl/apps/gcc/4.9.2/bin/../lib/gcc/x86_64-unknown-linux-gnu/4.9.2/ -mtune=corei7 -march=x86-64 -g -Og
REM COMMAND_LINE
REM seed 1315233416 1861709065 493146545 646006399 -812608182 1165566367 608200437 736992045 1775137140 -1446356290 2034272599 -1687692944
REM
REM S 3|1.8|5|6|7|30:31:32(qc=5)
REM O 2|1.5|12|13|15|20:21(qc=5)
REM Li 1|1.3|8|9|10|10U:20(qc=5)
REM Fe 3|2.2|2.0|1.0|8|9|10|40:41:32(qc=5)
REM 
CELL 1.54180    7.10681    6.87570   12.19872   73.13408   55.84753   58.88180
LATT -1
SFAC Li O  S  Fe 
Li     1 -0.0749920000000 -0.2897550000000  0.0688810000000 1.0  -0.19
Li     1 -0.3647460000000  0.2897550000000  0.0688810000000 1.0  -0.19
Li     1 -0.3930100000000 -0.2348100000000 -0.4024670000000 1.0  -0.01
Li     1  0.3721800000000  0.2348100000000 -0.4024670000000 1.0  -0.01
Li     1  0.5299250000000 -0.4072290000000  0.2084250000000 1.0  -0.02
Li     1  0.1226960000000  0.4072290000000  0.2084250000000 1.0  -0.02
Li     1 -0.1912230000000  0.4792890000000 -0.2298270000000 1.0   0.00
Li     1  0.2880670000000 -0.4792890000000 -0.2298270000000 1.0   0.00
Li     1  0.3801510000000  0.2422360000000  0.3298550000000 1.0  -0.01
Li     1 -0.3776130000000 -0.2422360000000  0.3298550000000 1.0  -0.01
Li     1  0.0562750000000 -0.2820060000000  0.3298270000000 1.0  -0.01
Li     1 -0.2257310000000  0.2820060000000  0.3298270000000 1.0  -0.01
O      2 -0.4327510000000  0.1291520000000 -0.5802840000000 1.0   0.00
O      2 -0.3035990000000 -0.1291520000000 -0.5802840000000 1.0   0.00
O      2 -0.4899740000000 -0.3803350000000 -0.2437650000000 1.0   0.11
O      2  0.1296910000000  0.3803350000000 -0.2437650000000 1.0   0.11
O      2  0.3547960000000  0.4638680000000  0.2060070000000 1.0   0.02
O      2 -0.1813360000000 -0.4638680000000  0.2060070000000 1.0   0.02
S      3  0.2066400000000 -0.1824860000000  0.4268450000000 1.0   0.00
S      3  0.0241540000000  0.1824860000000  0.4268450000000 1.0   0.00
Fe     4  0.0986980000000  0.1924390000000 -0.0995770000000 1.0   3.12
Fe     4  0.2911370000000 -0.1924390000000 -0.0995770000000 1.0   3.12
END
