TITL LFSO-Li2Fe3SO3-200912-145458-3adb76 0.0363 127.440259 -4.60500384E+003 6.50267 7.06813 9 (Cm) n - 1
REM
REM Run started: Sat, 12 Sep 2020 16:22:38 +0100 in /lustre/scratch/uccabz1/launch_tmp/launcher_2020-09-12-13-54-56-522673
REM CASTEP 20.1 from code version af48c487+ pr-geom-scf-spinfix Tue Jun 2 15:39:59 2020 +0100
REM Functional Perdew Burke Ernzerhof Relativity Koelling-Harmon Dispersion off
REM Cut-off 340.0000 eV Grid scale 1.7500 Gmax 16.5316 1/A FBSC none
REM MP grid 4 4 3 Offset 0.000 0.000 0.000 No. kpts 16 Spacing 0.07
REM Total runtime: 6366.03 s
REM Overall efficiency: 96 %
REM
REM
REM
REM compiler GCC version 4.9.2
REM options -cpp -iprefix /lustre/shared/ucl/apps/gcc/4.9.2/bin/../lib/gcc/x86_64-unknown-linux-gnu/4.9.2/ -mtune=corei7 -march=x86-64 -g -Og
REM COMMAND_LINE
REM seed -670476193 -591543640 161506246 -1050935703 -2140579579 1883080609 912679171 -124870657 1007492833 1249925656 -379646757 -628184746
REM
REM S 3|1.8|5|6|7|30:31:32(qc=5)
REM O 2|1.5|12|13|15|20:21(qc=5)
REM Li 1|1.3|8|9|10|10U:20(qc=5)
REM Fe 3|2.2|2.0|1.0|8|9|10|40:41:32(qc=5)
REM 
CELL 1.54180    4.32326    4.32326    6.84561   88.27960   88.27960   85.45967
LATT -1
SFAC Li O  S  Fe 
Li     1  0.0599490000000  0.4810460000000 -0.1518170000000 1.0   0.01
Li     1  0.4810460000000  0.0599490000000 -0.1518170000000 1.0   0.01
O      2  0.2936470000000 -0.2372150000000 -0.2827710000000 1.0   0.20
O      2 -0.2372150000000  0.2936470000000 -0.2827710000000 1.0   0.20
O      2  0.2368060000000  0.2368060000000  0.0707280000000 1.0  -0.05
S      3  0.0686190000000  0.0686190000000  0.2509700000000 1.0  -0.11
Fe     4  0.2762330000000 -0.2656410000000  0.4716510000000 1.0   1.95
Fe     4 -0.2656410000000  0.2762330000000  0.4716510000000 1.0   1.95
Fe     4 -0.2702120000000 -0.2702120000000  0.2985060000000 1.0   2.35
END
