TITL LFSO-Li2FeSO-200912-011409-7cb98e -0.0639 311.855639 -8.02134209E+003 15.9988 16.2047 20 (Ccc2) n - 1
REM
REM Run started: Sat, 12 Sep 2020 03:53:16 +0100 in /lustre/scratch/uccabz1/launch_tmp/launcher_2020-09-12-00-14-08-170117
REM CASTEP 20.1 from code version af48c487+ pr-geom-scf-spinfix Tue Jun 2 15:39:59 2020 +0100
REM Functional Perdew Burke Ernzerhof Relativity Koelling-Harmon Dispersion off
REM Cut-off 340.0000 eV Grid scale 1.7500 Gmax 16.5316 1/A FBSC none
REM MP grid 3 3 2 Offset 0.000 0.000 0.000 No. kpts 4 Spacing 0.07
REM Total runtime: 10036.8 s
REM Overall efficiency: 97.5 %
REM
REM
REM
REM compiler GCC version 4.9.2
REM options -cpp -iprefix /lustre/shared/ucl/apps/gcc/4.9.2/bin/../lib/gcc/x86_64-unknown-linux-gnu/4.9.2/ -mtune=corei7 -march=x86-64 -g -Og
REM COMMAND_LINE
REM seed 1423370775 1579796986 1421644508 -431389301 -761922111 2040925556 -2103318923 -20898381 -759939060 -1890820924 -685330457 -926308406
REM
REM S 3|1.8|5|6|7|30:31:32(qc=5)
REM O 2|1.5|12|13|15|20:21(qc=5)
REM Li 1|1.3|8|9|10|10U:20(qc=5)
REM Fe 3|2.2|2.0|1.0|8|9|10|40:41:32(qc=5)
REM 
CELL 1.54180    6.44242    6.44242    7.57110   90.00000   90.00000   97.05803
LATT -1
SFAC Li O  S  Fe 
Li     1 -0.1805850000000 -0.2647640000000  0.4184030000000 1.0  -0.01
Li     1  0.1805850000000  0.2647640000000  0.4184030000000 1.0  -0.01
Li     1 -0.2647640000000 -0.1805850000000 -0.0815970000000 1.0  -0.01
Li     1  0.2647640000000  0.1805850000000 -0.0815970000000 1.0  -0.01
Li     1  0.5108780000000  0.2571670000000  0.1885600000000 1.0   0.02
Li     1 -0.5108780000000 -0.2571670000000  0.1885600000000 1.0   0.02
Li     1  0.2571670000000  0.5108780000000 -0.3114400000000 1.0   0.02
Li     1 -0.2571670000000 -0.5108780000000 -0.3114400000000 1.0   0.02
O      2 -0.2256980000000 -0.2629840000000  0.1639720000000 1.0   0.33
O      2  0.2256980000000  0.2629840000000  0.1639720000000 1.0   0.33
O      2 -0.2629840000000 -0.2256980000000 -0.3360280000000 1.0   0.33
O      2  0.2629840000000  0.2256980000000 -0.3360280000000 1.0   0.33
S      3  0.2279880000000 -0.2802240000000  0.4175620000000 1.0   0.21
S      3 -0.2279880000000  0.2802240000000  0.4175620000000 1.0   0.21
S      3 -0.2802240000000  0.2279880000000 -0.0824380000000 1.0   0.21
S      3  0.2802240000000 -0.2279880000000 -0.0824380000000 1.0   0.21
Fe     4  0.3093360000000 -0.0448260000000 -0.3569490000000 1.0   3.46
Fe     4 -0.3093360000000  0.0448260000000 -0.3569490000000 1.0   3.46
Fe     4 -0.0448260000000  0.3093360000000  0.1430510000000 1.0   3.46
Fe     4  0.0448260000000 -0.3093360000000  0.1430510000000 1.0   3.46
END
