TITL LFSO-Li4FeS2O-200910-114313-892d41 0.3630 385.659754 -8.12727405E+003 9.97253 10.4513 24 (P-1) n - 1
REM
REM Run started: Fri, 11 Sep 2020 10:06:28 +0100 in /lustre/scratch/uccabz1/launch_tmp/launcher_2020-09-10-10-43-11-835547
REM CASTEP 20.1 from code version af48c487+ pr-geom-scf-spinfix Tue Jun 2 15:39:59 2020 +0100
REM Functional Perdew Burke Ernzerhof Relativity Koelling-Harmon Dispersion off
REM Cut-off 340.0000 eV Grid scale 1.7500 Gmax 16.5316 1/A FBSC none
REM MP grid 4 2 2 Offset 0.000 0.000 0.000 No. kpts 8 Spacing 0.07
REM Total runtime: 87439.4 s
REM Overall efficiency: 98.9167 %
REM
REM
REM
REM compiler GCC version 4.9.2
REM options -cpp -iprefix /lustre/shared/ucl/apps/gcc/4.9.2/bin/../lib/gcc/x86_64-unknown-linux-gnu/4.9.2/ -mtune=corei7 -march=x86-64 -g -Og
REM COMMAND_LINE
REM seed -660190545 -1879811722 -1162467241 214139253 1967424346 92763833 20351778 540229659 -1179477657 1438527837 919757737 752057007
REM
REM S 3|1.8|5|6|7|30:31:32(qc=5)
REM O 2|1.5|12|13|15|20:21(qc=5)
REM Li 1|1.3|8|9|10|10U:20(qc=5)
REM Fe 3|2.2|2.0|1.0|8|9|10|40:41:32(qc=5)
REM 
CELL 1.54180    3.64194   11.16286   12.95570   49.49453   82.78068   74.75739
LATT -1
SFAC Li O  S  Fe 
Li     1 -0.2117280000000  0.2847760000000  0.2658080000000 1.0   0.00
Li     1  0.2117280000000 -0.2847760000000 -0.2658080000000 1.0   0.00
Li     1 -0.0356360000000 -0.1435330000000  0.0667090000000 1.0  -0.03
Li     1  0.0356360000000  0.1435330000000 -0.0667090000000 1.0  -0.03
Li     1 -0.5046910000000  0.0484390000000  0.1135310000000 1.0   0.00
Li     1  0.5046910000000 -0.0484390000000 -0.1135310000000 1.0   0.00
Li     1  0.3536620000000  0.3838860000000 -0.0654710000000 1.0  -0.00
Li     1 -0.3536620000000 -0.3838860000000  0.0654710000000 1.0  -0.00
Li     1 -0.0038510000000 -0.0021230000000  0.3279350000000 1.0   0.02
Li     1  0.0038510000000  0.0021230000000 -0.3279350000000 1.0   0.02
Li     1 -0.1702050000000 -0.3952040000000  0.6584720000000 1.0  -0.05
Li     1  0.1702050000000  0.3952040000000 -0.6584720000000 1.0  -0.05
O      2  0.3559900000000 -0.4663020000000 -0.2670450000000 1.0   0.16
O      2 -0.3559900000000  0.4663020000000  0.2670450000000 1.0   0.16
O      2  0.5000000000000  0.0000000000000  0.0000000000000 1.0   0.07
S      3  0.0932350000000 -0.2283260000000 -0.0837790000000 1.0   0.01
S      3 -0.0932350000000  0.2283260000000  0.0837790000000 1.0   0.01
S      3 -0.5782090000000  0.0804270000000  0.3942920000000 1.0   0.01
S      3  0.5782090000000 -0.0804270000000 -0.3942920000000 1.0   0.01
S      3  0.0890150000000  0.2472260000000 -0.3125310000000 1.0   0.19
S      3 -0.0890150000000 -0.2472260000000  0.3125310000000 1.0   0.19
Fe     4  0.5104880000000  0.6011960000000  0.3147110000000 1.0   3.31
Fe     4 -0.5104880000000 -0.6011960000000 -0.3147110000000 1.0   3.31
Fe     4  0.0000000000000  0.5000000000000 -0.5000000000000 1.0   2.68
END
