TITL LFSO-Li4Fe2S3O2-200911-064120-0626c5 0.6041 389.856064 -8.63077078E+003 12.9428 13.2685 22 (P-1) n - 1
REM
REM Run started: Sat, 12 Sep 2020 11:45:20 +0100 in /lustre/scratch/uccabz1/launch_tmp/launcher_2020-09-12-09-12-37-334217
REM CASTEP 20.1 from code version af48c487+ pr-geom-scf-spinfix Tue Jun 2 15:39:59 2020 +0100
REM Functional Perdew Burke Ernzerhof Relativity Koelling-Harmon Dispersion off
REM Cut-off 340.0000 eV Grid scale 1.7500 Gmax 16.5316 1/A FBSC none
REM MP grid 4 3 2 Offset 0.000 0.000 0.000 No. kpts 12 Spacing 0.07
REM Total runtime: 94721.4 s
REM Overall efficiency: 98.8571 %
REM
REM
REM
REM compiler GCC version 4.9.2
REM options -cpp -iprefix /lustre/shared/ucl/apps/gcc/4.9.2/bin/../lib/gcc/x86_64-unknown-linux-gnu/4.9.2/ -mtune=corei7 -march=x86-64 -g -Og
REM COMMAND_LINE
REM seed -2020517164 2104838277 -932702290 704522842 -1672039534 -83532023 -560596731 2114525784 -673976882 573597205 -2066183092 397369775
REM
REM S 3|1.8|5|6|7|30:31:32(qc=5)
REM O 2|1.5|12|13|15|20:21(qc=5)
REM Li 1|1.3|8|9|10|10U:20(qc=5)
REM Fe 3|2.2|2.0|1.0|8|9|10|40:41:32(qc=5)
REM 
CELL 1.54180    8.35456    7.48795   18.73173   40.00504   31.41706   52.14960
LATT -1
SFAC Li O  S  Fe 
Li     1 -0.2281480000000 -0.2491410000000 -0.5123000000000 1.0   0.03
Li     1  0.2281480000000  0.2491410000000  0.5123000000000 1.0   0.03
Li     1 -0.4722620000000 -0.1565530000000  0.1613470000000 1.0  -0.00
Li     1  0.4722620000000  0.1565530000000 -0.1613470000000 1.0  -0.00
Li     1  0.2624450000000  0.5094040000000 -0.0678900000000 1.0  -0.00
Li     1 -0.2624450000000 -0.5094040000000  0.0678900000000 1.0  -0.00
Li     1  0.1559040000000  0.4939420000000 -0.1904240000000 1.0   0.04
Li     1 -0.1559040000000 -0.4939420000000  0.1904240000000 1.0   0.04
O      2 -0.1137990000000 -0.2756950000000  0.0201410000000 1.0   0.31
O      2  0.1137990000000  0.2756950000000 -0.0201410000000 1.0   0.31
O      2  0.4599490000000 -0.4124450000000  0.3443660000000 1.0   0.26
O      2 -0.4599490000000  0.4124450000000 -0.3443660000000 1.0   0.26
S      3  0.1270850000000  0.1186300000000  0.1927850000000 1.0   0.18
S      3 -0.1270850000000 -0.1186300000000 -0.1927850000000 1.0   0.18
S      3 -0.0824580000000  0.5612370000000  0.3117590000000 1.0   0.05
S      3  0.0824580000000 -0.5612370000000 -0.3117590000000 1.0   0.05
S      3 -0.5801280000000  0.0745360000000  0.3587490000000 1.0   0.20
S      3  0.5801280000000 -0.0745360000000 -0.3587490000000 1.0   0.20
Fe     4  0.0790630000000 -0.0156000000000 -0.1942350000000 1.0   3.07
Fe     4 -0.0790630000000  0.0156000000000  0.1942350000000 1.0   3.07
Fe     4 -0.5291670000000 -0.3191010000000  0.4043230000000 1.0   2.35
Fe     4  0.5291670000000  0.3191010000000 -0.4043230000000 1.0   2.35
END
