TITL LFSO-Li4Fe2S2O3-200911-094714-f05192 -0.0103 343.911886 -8.89889116E+003 15.1920 15.3597 22 (C2/m) n - 1
REM
REM Run started: Sat, 12 Sep 2020 13:06:04 +0100 in /lustre/scratch/uccabz1/launch_tmp/launcher_2020-09-12-10-46-34-688231
REM CASTEP 20.1 from code version af48c487+ pr-geom-scf-spinfix Tue Jun 2 15:39:59 2020 +0100
REM Functional Perdew Burke Ernzerhof Relativity Koelling-Harmon Dispersion off
REM Cut-off 340.0000 eV Grid scale 1.7500 Gmax 16.5316 1/A FBSC none
REM MP grid 5 2 3 Offset 0.000 0.000 0.000 No. kpts 15 Spacing 0.07
REM Total runtime: 84773.7 s
REM Overall efficiency: 84.0833 %
REM
REM
REM
REM compiler GCC version 4.9.2
REM options -cpp -iprefix /lustre/shared/ucl/apps/gcc/4.9.2/bin/../lib/gcc/x86_64-unknown-linux-gnu/4.9.2/ -mtune=corei7 -march=x86-64 -g -Og
REM COMMAND_LINE
REM seed -1058521144 -1192053686 -43048126 -1616696635 700246928 -679087302 -2133226880 1542246163 -1886258602 2112934780 -2025944780 1784519009
REM
REM S 3|1.8|5|6|7|30:31:32(qc=5)
REM O 2|1.5|12|13|15|20:21(qc=5)
REM Li 1|1.3|8|9|10|10U:20(qc=5)
REM Fe 3|2.2|2.0|1.0|8|9|10|40:41:32(qc=5)
REM 
CELL 1.54180    3.59142   13.99657   13.14971  144.55973   97.81560   97.62876
LATT -1
SFAC Li O  S  Fe 
Li     1  0.2002230000000 -0.0757480000000 -0.0217170000000 1.0  -0.03
Li     1 -0.2002230000000  0.0757480000000  0.0217170000000 1.0  -0.03
Li     1 -0.4016640000000  0.3130310000000  0.3755260000000 1.0   0.03
Li     1  0.4016640000000 -0.3130310000000 -0.3755260000000 1.0   0.03
Li     1  0.1040140000000  0.1448920000000 -0.4386580000000 1.0  -0.01
Li     1 -0.1040140000000 -0.1448920000000  0.4386580000000 1.0  -0.01
Li     1  0.1975550000000 -0.3988700000000  0.2987500000000 1.0  -0.03
Li     1 -0.1975550000000  0.3988700000000 -0.2987500000000 1.0  -0.03
O      2  0.2951170000000 -0.2376780000000  0.3332030000000 1.0   0.31
O      2 -0.2951170000000  0.2376780000000 -0.3332030000000 1.0   0.31
O      2  0.3981250000000  0.1658300000000  0.1269450000000 1.0   0.29
O      2 -0.3981250000000 -0.1658300000000 -0.1269450000000 1.0   0.29
O      2  0.8374620000000 -0.1216320000000  0.2991470000000 1.0   0.25
O      2 -0.8374620000000  0.1216320000000 -0.2991470000000 1.0   0.25
S      3  0.1275110000000 -0.2547810000000  0.0099230000000 1.0   0.18
S      3 -0.1275110000000  0.2547810000000 -0.0099230000000 1.0   0.18
S      3  0.2111380000000  0.3728550000000 -0.4547840000000 1.0   0.25
S      3 -0.2111380000000 -0.3728550000000  0.4547840000000 1.0   0.25
Fe     4 -0.2905540000000  0.1750260000000 -0.2577110000000 1.0   2.82
Fe     4  0.2905540000000 -0.1750260000000  0.2577110000000 1.0   2.82
Fe     4  0.5093060000000 -0.3235010000000 -0.1573610000000 1.0   3.54
Fe     4 -0.5093060000000  0.3235010000000  0.1573610000000 1.0   3.54
END
