TITL LFSO-Li4Fe3S3O2-200927-112107-c840bf -0.0164 182.086405 -5.17679940E+003 9.44440 9.70072 12 (C222) n - 1
REM
REM Run started: Sun, 27 Sep 2020 13:02:06 +0100 in /lustre/scratch/uccabz1/launch_tmp/launcher_2020-09-27-10-21-05-798580
REM CASTEP 20.1 from code version af48c487+ pr-geom-scf-spinfix Tue Jun 2 15:39:59 2020 +0100
REM Functional Perdew Burke Ernzerhof Relativity Koelling-Harmon Dispersion off
REM Cut-off 340.0000 eV Grid scale 1.7500 Gmax 16.5316 1/A FBSC none
REM MP grid 4 3 3 Offset 0.000 0.000 0.000 No. kpts 8 Spacing 0.07
REM Total runtime: 7148.9 s
REM Overall efficiency: 96.7143 %
REM
REM
REM
REM compiler GCC version 4.9.2
REM options -cpp -iprefix /lustre/shared/ucl/apps/gcc/4.9.2/bin/../lib/gcc/x86_64-unknown-linux-gnu/4.9.2/ -mtune=corei7 -march=x86-64 -g -Og
REM COMMAND_LINE
REM seed -890853083 -856689464 1307507331 -1512048423 -847712027 -214046745 -897479692 2008156568 -1652155523 966099096 284601693 1427906739
REM
REM S 3|1.8|5|6|7|30:31:32(qc=5)
REM O 2|1.5|12|13|15|20:21(qc=5)
REM Li 1|1.3|8|9|10|10U:20(qc=5)
REM Fe 3|2.2|2.0|1.0|8|9|10|40:41:32(qc=5)
REM 
CELL 1.54180    3.65319    7.52129    7.61963  119.57402   90.00000   90.00000
LATT -1
SFAC Li O  S  Fe 
Li     1 -0.2263050000000  0.1850290000000 -0.2415220000000 1.0  -0.05
Li     1 -0.2263050000000 -0.1850290000000  0.2415220000000 1.0  -0.05
Li     1  0.2263050000000 -0.5734490000000  0.2415220000000 1.0  -0.05
Li     1  0.2263050000000  0.5734490000000 -0.2415220000000 1.0  -0.05
O      2  0.4645200000000 -0.5000000000000 -0.5000000000000 1.0   0.27
O      2 -0.4645200000000 -0.0000000000000  0.5000000000000 1.0   0.27
S      3  0.0000000000000  0.1078390000000  0.2156780000000 1.0   0.12
S      3  0.0000000000000 -0.1078390000000 -0.2156780000000 1.0   0.12
S      3  0.0000000000000  0.5000000000000  0.0000000000000 1.0   0.18
Fe     4 -0.5000000000000 -0.2161720000000 -0.4323440000000 1.0   3.18
Fe     4  0.5000000000000  0.2161720000000  0.4323440000000 1.0   3.18
Fe     4  0.5000000000000 -0.0000000000000  0.0000000000000 1.0   2.34
END
