TITL LFSO-Li2Fe4S4O-200911-203447-c4a13f 0.0010 447.367242 -1.10126277E+004 10.9661 17.7082 22 (P3) n - 1
REM
REM Run started: Sun, 13 Sep 2020 03:00:44 +0100 in /lustre/scratch/uccabz1/launch_tmp/launcher_2020-09-11-19-34-45-818090
REM CASTEP 20.1 from code version af48c487+ pr-geom-scf-spinfix Tue Jun 2 15:39:59 2020 +0100
REM Functional Perdew Burke Ernzerhof Relativity Koelling-Harmon Dispersion off
REM Cut-off 340.0000 eV Grid scale 1.7500 Gmax 16.5316 1/A FBSC none
REM MP grid 2 3 3 Offset 0.000 0.000 0.000 No. kpts 5 Spacing 0.07
REM Total runtime: 113085 s
REM Overall efficiency: 83.6364 %
REM
REM
REM
REM compiler GCC version 4.9.2
REM options -cpp -iprefix /lustre/shared/ucl/apps/gcc/4.9.2/bin/../lib/gcc/x86_64-unknown-linux-gnu/4.9.2/ -mtune=corei7 -march=x86-64 -g -Og
REM COMMAND_LINE
REM seed -392169378 -103249944 -1743475193 -802545521 -1882340345 -1526092760 -1938788332 -1693308045 916256767 -1233944036 760118033 -214860032
REM
REM S 3|1.8|5|6|7|30:31:32(qc=5)
REM O 2|1.5|12|13|15|20:21(qc=5)
REM Li 1|1.3|8|9|10|10U:20(qc=5)
REM Fe 3|2.2|2.0|1.0|8|9|10|40:41:32(qc=5)
REM 
CELL 1.54180    7.89518    8.08883    8.08883  120.00000   90.00000   90.00000
LATT -1
SFAC Li O  S  Fe 
Li     1 -0.1316620000000  0.3773650000000  0.3398130000000 1.0  -0.01
Li     1 -0.1316620000000 -0.3398130000000  0.0375520000000 1.0  -0.01
Li     1 -0.1316620000000 -0.0375520000000 -0.3773650000000 1.0  -0.01
Li     1  0.2104230000000 -0.3333330000000  0.3333330000000 1.0   0.01
O      2 -0.2444690000000  0.0000000000000 -0.0000000000000 1.0  -0.00
O      2 -0.0245660000000  0.3333330000000 -0.3333330000000 1.0  -0.67
S      3 -0.2271120000000  0.3142450000000 -0.0667450000000 1.0   0.03
S      3 -0.2271120000000  0.0667450000000  0.3809900000000 1.0   0.03
S      3 -0.2271120000000 -0.3809900000000 -0.3142450000000 1.0   0.03
S      3  0.4180560000000  0.3927520000000  0.2284310000000 1.0   0.02
S      3  0.4180560000000 -0.2284310000000  0.1643210000000 1.0   0.02
S      3  0.4180560000000 -0.1643210000000 -0.3927520000000 1.0   0.02
S      3 -0.0829890000000 -0.3333330000000  0.3333330000000 1.0   0.10
S      3 -0.5436020000000  0.3333330000000 -0.3333330000000 1.0   0.01
Fe     4 -0.3971600000000 -0.1430530000000 -0.1898080000000 1.0   1.13
Fe     4 -0.3971600000000  0.1898080000000  0.0467550000000 1.0   1.13
Fe     4 -0.3971600000000 -0.0467550000000  0.1430530000000 1.0   1.13
Fe     4 -0.4804210000000 -0.4605030000000 -0.4617000000000 1.0   2.45
Fe     4 -0.4804210000000  0.4617000000000  0.0011970000000 1.0   2.45
Fe     4 -0.4804210000000 -0.0011970000000  0.4605030000000 1.0   2.45
Fe     4 -0.2404070000000  0.3333330000000 -0.3333330000000 1.0  -2.29
Fe     4 -0.3783700000000 -0.3333330000000  0.3333330000000 1.0   2.95
END
