TITL LFSO-Li3Fe3S5O-201001-220148-886fb6 0.2900 553.147261 -1.02885128E+004 -10.7670 14.6243 24 (P1) n - 1
REM
REM Run started: Sat, 03 Oct 2020 02:59:57 +0100 in /scratch/scratch/mmm0366/launch_tmp/launcher_2020-10-01-21-01-46-370753
REM CASTEP 19.11| from code version Version unavailable
REM Functional Perdew Burke Ernzerhof Relativity Koelling-Harmon Dispersion off
REM Cut-off 340.0000 eV Grid scale 1.7500 Gmax 16.5316 1/A FBSC none
REM MP grid 2 2 3 Offset 0.000 0.000 0.000 No. kpts 6 Spacing 0.07
REM Total runtime: 118818 s
REM Overall efficiency: 98.4167 %
REM
REM
REM
REM compiler GCC version 4.9.2
REM options -cpp -iprefix /scratch/UCL/applications/gcc/4.9.2/bin/../lib/gcc/x86_64-unknown-linux-gnu/4.9.2/ -mtune=corei7 -march=x86-64 -g -O2
REM COMMAND_LINE
REM seed 1566054485 561795872 -708775182 938153215 345104782 -1521330521 1934270023 844694004 1019711854 1104355097 12807642 -1062267632
REM
REM S 3|1.8|5|6|7|30:31:32(qc=5)
REM O 2|1.5|12|13|15|20:21(qc=5)
REM Li 1|1.3|8|9|10|10U:20(qc=5)
REM Fe 3|2.2|2.0|1.0|8|9|10|40:41:32(qc=5)
REM 
CELL 1.54180    9.62479    9.62479    8.85542   57.08183   57.08183   60.00000
LATT -1
SFAC Li O  S  Fe 
Li     1 -0.2982210000000 -0.2924000000000 -0.3922220000000 1.0  -0.00
Li     1 -0.2924000000000 -0.0171580000000 -0.3922220000000 1.0  -0.00
Li     1 -0.0171580000000 -0.2982210000000 -0.3922220000000 1.0  -0.00
Li     1 -0.0002720000000  0.0286440000000  0.2340570000000 1.0   0.04
Li     1  0.0286440000000 -0.2624280000000  0.2340570000000 1.0   0.04
Li     1 -0.2624280000000 -0.0002720000000  0.2340570000000 1.0   0.04
O      2 -0.1456880000000 -0.1456880000000  0.4370650000000 1.0  -0.22
O      2 -0.0338460000000 -0.0338460000000  0.1015370000000 1.0  -0.74
S      3  0.1814890000000  0.2609470000000  0.0629040000000 1.0   0.33
S      3  0.2609470000000 -0.5053400000000  0.0629040000000 1.0   0.33
S      3 -0.5053400000000  0.1814890000000  0.0629040000000 1.0   0.33
S      3  0.1864420000000  0.4189270000000 -0.4235080000000 1.0  -0.07
S      3  0.4189270000000 -0.1818600000000 -0.4235080000000 1.0  -0.07
S      3 -0.1818600000000  0.1864420000000 -0.4235080000000 1.0  -0.07
S      3  0.3870210000000 -0.2377350000000  0.1972250000000 1.0   0.05
S      3 -0.2377350000000 -0.3465100000000  0.1972250000000 1.0   0.05
S      3 -0.3465100000000  0.3870210000000  0.1972250000000 1.0   0.05
S      3 -0.2868230000000 -0.2868230000000 -0.1395310000000 1.0   0.33
Fe     4  0.3764500000000 -0.4351430000000 -0.2301290000000 1.0  -1.97
Fe     4 -0.4351430000000  0.2888220000000 -0.2301290000000 1.0  -1.97
Fe     4  0.2888220000000  0.3764500000000 -0.2301290000000 1.0  -1.97
Fe     4 -0.3035580000000  0.4176720000000  0.3890920000000 1.0  -1.69
Fe     4  0.4176720000000 -0.5032060000000  0.3890920000000 1.0  -1.69
Fe     4 -0.5032060000000 -0.3035580000000  0.3890920000000 1.0  -1.69
END
