TITL LFSO-Li3Fe3SO5-201001-212723-d414e3 -0.0263 303.513049 -1.13658286E+004 21.7596 21.9573 24 (P1) n - 1
REM
REM Run started: Fri, 02 Oct 2020 08:57:23 +0100 in /scratch/scratch/mmm0366/launch_tmp/launcher_2020-10-01-20-27-21-630643
REM CASTEP 19.11| from code version Version unavailable
REM Functional Perdew Burke Ernzerhof Relativity Koelling-Harmon Dispersion off
REM Cut-off 340.0000 eV Grid scale 1.7500 Gmax 16.5316 1/A FBSC none
REM MP grid 4 3 2 Offset 0.000 0.000 0.000 No. kpts 6 Spacing 0.07
REM Total runtime: 43055 s
REM Overall efficiency: 97.7692 %
REM
REM
REM
REM compiler GCC version 4.9.2
REM options -cpp -iprefix /scratch/UCL/applications/gcc/4.9.2/bin/../lib/gcc/x86_64-unknown-linux-gnu/4.9.2/ -mtune=corei7 -march=x86-64 -g -O2
REM COMMAND_LINE
REM seed -1716317511 1112735947 -566138736 -1149559617 -2111122588 822364005 740079541 -550314709 -1612482902 -838218096 731522004 441995727
REM
REM S 3|1.8|5|6|7|30:31:32(qc=5)
REM O 2|1.5|12|13|15|20:21(qc=5)
REM Li 1|1.3|8|9|10|10U:20(qc=5)
REM Fe 3|2.2|2.0|1.0|8|9|10|40:41:32(qc=5)
REM 
CELL 1.54180    4.80623    5.39415   13.07650   90.00000   90.00000  116.45556
LATT -1
SFAC Li O  S  Fe 
Li     1 -0.2287020000000  0.3646140000000 -0.2288210000000 1.0  -0.03
Li     1  0.2287020000000 -0.3646140000000  0.2711790000000 1.0  -0.03
Li     1 -0.5933160000000 -0.3646140000000 -0.2711790000000 1.0  -0.03
Li     1  0.5933160000000  0.3646140000000  0.2288210000000 1.0  -0.03
Li     1  0.3413760000000  0.6827520000000 -0.0000000000000 1.0  -0.04
Li     1 -0.3413760000000 -0.6827520000000 -0.5000000000000 1.0  -0.04
O      2  0.0967990000000  0.2664410000000 -0.2264840000000 1.0   0.27
O      2 -0.0967990000000 -0.2664410000000  0.2735160000000 1.0   0.27
O      2 -0.1696420000000 -0.2664410000000 -0.2735160000000 1.0   0.27
O      2  0.1696420000000  0.2664410000000  0.2264840000000 1.0   0.27
O      2 -0.3614760000000 -0.3603470000000  0.0892490000000 1.0   0.30
O      2  0.3614760000000  0.3603470000000 -0.4107510000000 1.0   0.30
O      2 -0.0011290000000  0.3603470000000  0.4107510000000 1.0   0.30
O      2  0.0011290000000 -0.3603470000000 -0.0892490000000 1.0   0.30
O      2  0.5772720000000 -0.0000000000000  0.2500000000000 1.0   0.39
O      2 -0.5772720000000 -0.0000000000000 -0.2500000000000 1.0   0.39
S      3  0.0859800000000  0.1719600000000 -0.0000000000000 1.0   0.06
S      3 -0.0859800000000 -0.1719600000000 -0.5000000000000 1.0   0.06
Fe     4 -0.1179870000000 -0.0403140000000  0.1593690000000 1.0   2.91
Fe     4  0.1179870000000  0.0403140000000 -0.3406310000000 1.0   2.91
Fe     4 -0.0776730000000  0.0403140000000  0.3406310000000 1.0   2.91
Fe     4  0.0776730000000 -0.0403140000000 -0.1593690000000 1.0   2.91
Fe     4 -0.3017280000000  0.3965440000000 -0.0000000000000 1.0   3.59
Fe     4  0.3017280000000 -0.3965440000000 -0.5000000000000 1.0   3.59
END
