TITL LFSO-Li4Fe3S4O-200926-064700-628a90 -0.0104 534.521298 -1.00843971E+004 23.9205 24.1577 24 (P4) n - 1
REM
REM Run started: Sat, 26 Sep 2020 12:15:44 +0100 in /lustre/scratch/uccabz1/launch_tmp/launcher_2020-09-26-05-46-58-249422
REM CASTEP 20.1 from code version af48c487+ pr-geom-scf-spinfix Tue Jun 2 15:39:59 2020 +0100
REM Functional Perdew Burke Ernzerhof Relativity Koelling-Harmon Dispersion off
REM Cut-off 340.0000 eV Grid scale 1.7500 Gmax 16.5316 1/A FBSC none
REM MP grid 2 2 2 Offset 0.000 0.000 0.000 No. kpts 1 Spacing 0.07
REM Total runtime: 19783.6 s
REM Overall efficiency: 79.6667 %
REM
REM
REM
REM compiler GCC version 4.9.2
REM options -cpp -iprefix /lustre/shared/ucl/apps/gcc/4.9.2/bin/../lib/gcc/x86_64-unknown-linux-gnu/4.9.2/ -mtune=corei7 -march=x86-64 -g -Og
REM COMMAND_LINE
REM seed 974083776 1920631264 1638879585 956071917 1528724362 -737806199 -335334131 -1640089179 1155369241 -35246666 -953089230 1095064913
REM
REM S 3|1.8|5|6|7|30:31:32(qc=5)
REM O 2|1.5|12|13|15|20:21(qc=5)
REM Li 1|1.3|8|9|10|10U:20(qc=5)
REM Fe 3|2.2|2.0|1.0|8|9|10|40:41:32(qc=5)
REM 
CELL 1.54180    7.91639    7.91639    8.52924   90.00000   90.00000   90.00000
LATT -1
SFAC Li O  S  Fe 
Li     1  0.3768490000000  0.2775830000000 -0.0002610000000 1.0  -0.02
Li     1 -0.3768490000000 -0.2775830000000 -0.0002610000000 1.0  -0.02
Li     1 -0.2775830000000  0.3768490000000 -0.0002610000000 1.0  -0.02
Li     1  0.2775830000000 -0.3768490000000 -0.0002610000000 1.0  -0.02
Li     1  0.0941440000000 -0.3805200000000 -0.2949680000000 1.0   0.01
Li     1 -0.0941440000000  0.3805200000000 -0.2949680000000 1.0   0.01
Li     1  0.3805200000000  0.0941440000000 -0.2949680000000 1.0   0.01
Li     1 -0.3805200000000 -0.0941440000000 -0.2949680000000 1.0   0.01
O      2 -0.5000000000000  0.0000000000000 -0.4680330000000 1.0   0.30
O      2  0.0000000000000 -0.5000000000000 -0.4680330000000 1.0   0.30
S      3 -0.3802050000000  0.1661650000000 -0.1296540000000 1.0   0.21
S      3  0.3802050000000 -0.1661650000000 -0.1296540000000 1.0   0.21
S      3 -0.1661650000000 -0.3802050000000 -0.1296540000000 1.0   0.21
S      3  0.1661650000000  0.3802050000000 -0.1296540000000 1.0   0.21
S      3  0.3318240000000  0.1680750000000  0.2497080000000 1.0   0.33
S      3 -0.3318240000000 -0.1680750000000  0.2497080000000 1.0   0.33
S      3 -0.1680750000000  0.3318240000000  0.2497080000000 1.0   0.33
S      3  0.1680750000000 -0.3318240000000  0.2497080000000 1.0   0.33
Fe     4 -0.3907530000000  0.1116130000000 -0.6461390000000 1.0   3.59
Fe     4  0.3907530000000 -0.1116130000000 -0.6461390000000 1.0   3.59
Fe     4 -0.1116130000000 -0.3907530000000 -0.6461390000000 1.0   3.59
Fe     4  0.1116130000000  0.3907530000000 -0.6461390000000 1.0   3.59
Fe     4  0.0000000000000  0.5000000000000  0.0680680000000 1.0   3.43
Fe     4 -0.5000000000000  0.0000000000000  0.0680680000000 1.0   3.43
END
