TITL LFSO-Li2FeSO-200912-001337-e08473 -0.0147 337.835918 -8.01847689E+003 15.9040 16.2908 20 (P3) n - 1
REM
REM Run started: Sat, 12 Sep 2020 06:35:13 +0100 in /lustre/scratch/uccabz1/launch_tmp/launcher_2020-09-11-23-13-35-993524
REM CASTEP 20.1 from code version af48c487+ pr-geom-scf-spinfix Tue Jun 2 15:39:59 2020 +0100
REM Functional Perdew Burke Ernzerhof Relativity Koelling-Harmon Dispersion off
REM Cut-off 340.0000 eV Grid scale 1.7500 Gmax 16.5316 1/A FBSC none
REM MP grid 3 3 2 Offset 0.000 0.000 0.000 No. kpts 5 Spacing 0.07
REM Total runtime: 23482.5 s
REM Overall efficiency: 77.4 %
REM
REM
REM
REM compiler GCC version 4.9.2
REM options -cpp -iprefix /lustre/shared/ucl/apps/gcc/4.9.2/bin/../lib/gcc/x86_64-unknown-linux-gnu/4.9.2/ -mtune=corei7 -march=x86-64 -g -Og
REM COMMAND_LINE
REM seed 1154967202 1204616269 316397555 -1662808740 -2136248576 102748869 895447528 -1748611930 263577176 -779322088 -793063657 -1535607071
REM
REM S 3|1.8|5|6|7|30:31:32(qc=5)
REM O 2|1.5|12|13|15|20:21(qc=5)
REM Li 1|1.3|8|9|10|10U:20(qc=5)
REM Fe 3|2.2|2.0|1.0|8|9|10|40:41:32(qc=5)
REM 
CELL 1.54180    6.42281    6.42281    9.45638   90.00000   90.00000  120.00000
LATT -1
SFAC Li O  S  Fe 
Li     1  0.1429050000000  0.3619810000000  0.0709120000000 1.0   0.01
Li     1  0.2190770000000 -0.1429050000000  0.0709120000000 1.0   0.01
Li     1 -0.3619810000000 -0.2190770000000  0.0709120000000 1.0   0.01
Li     1  0.3376690000000  0.3840770000000 -0.2131550000000 1.0  -0.05
Li     1  0.0464080000000 -0.3376690000000 -0.2131550000000 1.0  -0.05
Li     1 -0.3840770000000 -0.0464080000000 -0.2131550000000 1.0  -0.05
Li     1  0.3333330000000 -0.3333330000000  0.2473760000000 1.0   0.01
Li     1 -0.3333330000000  0.3333330000000 -0.0502610000000 1.0  -0.00
O      2 -0.4674840000000  0.0068190000000  0.1533830000000 1.0   0.32
O      2  0.4743030000000  0.4674840000000  0.1533830000000 1.0   0.32
O      2 -0.0068190000000 -0.4743030000000  0.1533830000000 1.0   0.32
O      2 -0.0000000000000  0.0000000000000  0.4641820000000 1.0   0.34
S      3 -0.0314530000000  0.2941730000000 -0.1796430000000 1.0   0.14
S      3  0.3256260000000  0.0314530000000 -0.1796430000000 1.0   0.14
S      3 -0.2941730000000 -0.3256260000000 -0.1796430000000 1.0   0.14
S      3 -0.3333330000000  0.3333330000000  0.4849670000000 1.0   0.26
Fe     4  0.2626170000000  0.0611000000000 -0.4150670000000 1.0   3.38
Fe     4 -0.2015170000000 -0.2626170000000 -0.4150670000000 1.0   3.38
Fe     4 -0.0611000000000  0.2015170000000 -0.4150670000000 1.0   3.38
Fe     4 -0.3333330000000  0.3333330000000  0.2203410000000 1.0   3.92
END
