TITL LFSO-LiFe3S2O3-200909-174236-3818ab -0.0094 121.178301 -4.71066012E+003 10.0266 10.2625 9 (R3) n - 1
REM
REM Run started: Wed, 09 Sep 2020 18:24:40 +0100 in /lustre/scratch/uccabz1/launch_tmp/launcher_2020-09-09-16-42-34-907179
REM CASTEP 20.1 from code version af48c487+ pr-geom-scf-spinfix Tue Jun 2 15:39:59 2020 +0100
REM Functional Perdew Burke Ernzerhof Relativity Koelling-Harmon Dispersion off
REM Cut-off 340.0000 eV Grid scale 1.7500 Gmax 16.5316 1/A FBSC none
REM MP grid 3 3 3 Offset 0.000 0.000 0.000 No. kpts 6 Spacing 0.07
REM Total runtime: 2620.56 s
REM Overall efficiency: 91.25 %
REM
REM
REM
REM compiler GCC version 4.9.2
REM options -cpp -iprefix /lustre/shared/ucl/apps/gcc/4.9.2/bin/../lib/gcc/x86_64-unknown-linux-gnu/4.9.2/ -mtune=corei7 -march=x86-64 -g -Og
REM COMMAND_LINE
REM seed -1168430948 -628112909 -1251051129 -1112289371 -789398660 -1537563541 135093118 1859882789 2125521097 1890240173 909044627 -1365375867
REM
REM S 3|1.8|5|6|7|30:31:32(qc=5)
REM O 2|1.5|12|13|15|20:21(qc=5)
REM Li 1|1.3|8|9|10|10U:20(qc=5)
REM Fe 3|2.2|2.0|1.0|8|9|10|40:41:32(qc=5)
REM 
CELL 1.54180    5.04350    5.04350    5.04350   78.23283   78.23283   78.23283
LATT -1
SFAC Li O  S  Fe 
Li     1  0.2471890000000  0.2471890000000  0.2471890000000 1.0  -0.07
O      2 -0.0536500000000  0.3775490000000 -0.5075870000000 1.0   0.35
O      2 -0.5075870000000 -0.0536500000000  0.3775490000000 1.0   0.35
O      2  0.3775490000000 -0.5075870000000 -0.0536500000000 1.0   0.35
S      3 -0.1683820000000 -0.1683820000000 -0.1683820000000 1.0   0.02
S      3  0.0271150000000  0.0271150000000  0.0271150000000 1.0   0.07
Fe     4  0.1810950000000  0.4450000000000 -0.3024280000000 1.0   2.99
Fe     4 -0.3024280000000  0.1810950000000  0.4450000000000 1.0   2.99
Fe     4  0.4450000000000 -0.3024280000000  0.1810950000000 1.0   2.99
END
