TITL LFSO-Li4FeS2O-200910-114447-0cb244 0.2621 389.247528 -8.12684278E+003 11.9879 12.2347 24 (P2) n - 1
REM
REM Run started: Fri, 11 Sep 2020 20:38:49 +0100 in /lustre/scratch/uccabz1/launch_tmp/launcher_2020-09-10-10-44-44-725716
REM CASTEP 20.1 from code version af48c487+ pr-geom-scf-spinfix Tue Jun 2 15:39:59 2020 +0100
REM Functional Perdew Burke Ernzerhof Relativity Koelling-Harmon Dispersion off
REM Cut-off 340.0000 eV Grid scale 1.7500 Gmax 16.5316 1/A FBSC none
REM MP grid 4 3 2 Offset 0.000 0.000 0.000 No. kpts 6 Spacing 0.07
REM Total runtime: 126300 s
REM Overall efficiency: 98.8333 %
REM
REM
REM
REM compiler GCC version 4.9.2
REM options -cpp -iprefix /lustre/shared/ucl/apps/gcc/4.9.2/bin/../lib/gcc/x86_64-unknown-linux-gnu/4.9.2/ -mtune=corei7 -march=x86-64 -g -Og
REM COMMAND_LINE
REM seed 1978402034 -985303461 662275912 667304001 1310523985 613012374 1787025272 1133302257 -1996264023 -1574795807 -292861204 1927110621
REM
REM S 3|1.8|5|6|7|30:31:32(qc=5)
REM O 2|1.5|12|13|15|20:21(qc=5)
REM Li 1|1.3|8|9|10|10U:20(qc=5)
REM Fe 3|2.2|2.0|1.0|8|9|10|40:41:32(qc=5)
REM 
CELL 1.54180    3.67816    8.66579   14.95372  125.24871   90.00000   90.00000
LATT -1
SFAC Li O  S  Fe 
Li     1 -0.3617760000000 -0.3933870000000 -0.3746520000000 1.0   0.05
Li     1 -0.3617760000000  0.3933870000000  0.3746520000000 1.0   0.05
Li     1  0.1474760000000  0.0362480000000  0.1751630000000 1.0  -0.01
Li     1  0.1474760000000 -0.0362480000000 -0.1751630000000 1.0  -0.01
Li     1  0.0303080000000  0.3559870000000 -0.0769790000000 1.0   0.02
Li     1  0.0303080000000 -0.3559870000000  0.0769790000000 1.0   0.02
Li     1  0.1150380000000 -0.1062800000000 -0.4226790000000 1.0  -0.05
Li     1  0.1150380000000  0.1062800000000  0.4226790000000 1.0  -0.05
Li     1  0.5438630000000  0.2869230000000  0.0054080000000 1.0  -0.03
Li     1  0.5438630000000 -0.2869230000000 -0.0054080000000 1.0  -0.03
Li     1  0.1208790000000 -0.5612090000000  0.1990970000000 1.0  -0.01
Li     1  0.1208790000000  0.5612090000000 -0.1990970000000 1.0  -0.01
O      2  0.0483750000000  0.1732240000000 -0.0341770000000 1.0   0.22
O      2  0.0483750000000 -0.1732240000000  0.0341770000000 1.0   0.22
O      2  0.5537080000000  0.5000000000000  0.0000000000000 1.0   0.03
S      3  0.6119890000000  0.2840960000000  0.4956760000000 1.0   0.17
S      3  0.6119890000000 -0.2840960000000 -0.4956760000000 1.0   0.17
S      3  0.1051490000000 -0.2142990000000  0.2948090000000 1.0   0.21
S      3  0.1051490000000  0.2142990000000 -0.2948090000000 1.0   0.21
S      3 -0.3703730000000 -0.7618200000000  0.1848880000000 1.0   0.12
S      3 -0.3703730000000  0.7618200000000 -0.1848880000000 1.0   0.12
Fe     4 -0.3912870000000 -0.1640130000000  0.4049750000000 1.0   3.42
Fe     4 -0.3912870000000  0.1640130000000 -0.4049750000000 1.0   3.42
Fe     4 -0.0550770000000  0.0000000000000  0.0000000000000 1.0   3.72
END
