TITL LFSO-Li3Fe3S4O2-200929-162242-b4041b 0.0518 432.813349 -1.05630675E+004 14.0348 14.6512 24 (C2) n - 1
REM
REM Run started: Wed, 30 Sep 2020 17:55:11 +0100 in /lustre/scratch/uccabz1/launch_tmp/launcher_2020-09-30-08-32-19-511240
REM CASTEP 20.1 from code version af48c487+ pr-geom-scf-spinfix Tue Jun 2 15:39:59 2020 +0100
REM Functional Perdew Burke Ernzerhof Relativity Koelling-Harmon Dispersion off
REM Cut-off 340.0000 eV Grid scale 1.7500 Gmax 16.5316 1/A FBSC none
REM MP grid 3 2 2 Offset 0.000 0.000 0.000 No. kpts 6 Spacing 0.07
REM Total runtime: 84093.9 s
REM Overall efficiency: 98.5833 %
REM
REM
REM
REM compiler GCC version 4.9.2
REM options -cpp -iprefix /lustre/shared/ucl/apps/gcc/4.9.2/bin/../lib/gcc/x86_64-unknown-linux-gnu/4.9.2/ -mtune=corei7 -march=x86-64 -g -Og
REM COMMAND_LINE
REM seed 84250706 105163158 1152557048 1794606748 1352445361 -185483494 -1903088344 -218797758 279170167 2067433270 633551747 -1112390431
REM
REM S 3|1.8|5|6|7|30:31:32(qc=5)
REM O 2|1.5|12|13|15|20:21(qc=5)
REM Li 1|1.3|8|9|10|10U:20(qc=5)
REM Fe 3|2.2|2.0|1.0|8|9|10|40:41:32(qc=5)
REM 
CELL 1.54180    6.16767    7.92767    9.70521  114.10586   92.07763   90.00000
LATT -1
SFAC Li O  S  Fe 
Li     1  0.0368580000000 -0.0096380000000 -0.1551750000000 1.0  -0.01
Li     1 -0.0368580000000  0.1455370000000  0.1551750000000 1.0  -0.01
Li     1  0.3741760000000 -0.4804360000000 -0.5181290000000 1.0  -0.01
Li     1 -0.3741760000000  0.0376930000000  0.5181290000000 1.0  -0.01
Li     1 -0.6146820000000 -0.2455720000000 -0.1702760000000 1.0   0.02
Li     1  0.6146820000000 -0.0752960000000  0.1702760000000 1.0   0.02
O      2  0.1706110000000  0.3499930000000  0.3363070000000 1.0   0.14
O      2 -0.1706110000000  0.0136860000000 -0.3363070000000 1.0   0.14
O      2  0.8479600000000  0.0855680000000  0.3099020000000 1.0   0.16
O      2 -0.8479600000000 -0.2243340000000 -0.3099020000000 1.0   0.16
S      3 -0.2148160000000  0.5132400000000  0.5054200000000 1.0   0.08
S      3  0.2148160000000  0.0078200000000 -0.5054200000000 1.0   0.08
S      3  0.2498880000000 -0.0566640000000  0.0908550000000 1.0   0.24
S      3 -0.2498880000000 -0.1475190000000 -0.0908550000000 1.0   0.24
S      3 -0.2073190000000 -0.5730330000000 -0.1760650000000 1.0   0.16
S      3  0.2073190000000 -0.3969680000000  0.1760650000000 1.0   0.16
S      3  0.2354180000000  0.4198320000000 -0.3142310000000 1.0   0.03
S      3 -0.2354180000000 -0.2659380000000  0.3142310000000 1.0   0.03
Fe     4 -0.0111070000000  0.2105070000000 -0.3195140000000 1.0   2.08
Fe     4  0.0111070000000  0.5300210000000  0.3195140000000 1.0   2.08
Fe     4  0.0449240000000 -0.1180590000000  0.2532320000000 1.0   2.69
Fe     4 -0.0449240000000 -0.3712910000000 -0.2532320000000 1.0   2.69
Fe     4  0.0240130000000  0.2668890000000  0.4666390000000 1.0   1.44
Fe     4 -0.0240130000000 -0.1997500000000 -0.4666390000000 1.0   1.44
END
