TITL LFSO-Li3FeSO2-200911-155602-26fe1e -0.0508 117.827155 -2.63988173E+003 4.98479 5.05194 7 (R3m) n - 1
REM
REM Run started: Fri, 11 Sep 2020 18:39:52 +0100 in /lustre/scratch/uccabz1/launch_tmp/launcher_2020-09-11-14-56-01-136904
REM CASTEP 20.1 from code version af48c487+ pr-geom-scf-spinfix Tue Jun 2 15:39:59 2020 +0100
REM Functional Perdew Burke Ernzerhof Relativity Koelling-Harmon Dispersion off
REM Cut-off 340.0000 eV Grid scale 1.7500 Gmax 16.5316 1/A FBSC none
REM MP grid 4 4 3 Offset 0.000 0.000 0.000 No. kpts 24 Spacing 0.07
REM Total runtime: 8433.6 s
REM Overall efficiency: 95 %
REM
REM
REM
REM compiler GCC version 4.9.2
REM options -cpp -iprefix /lustre/shared/ucl/apps/gcc/4.9.2/bin/../lib/gcc/x86_64-unknown-linux-gnu/4.9.2/ -mtune=corei7 -march=x86-64 -g -Og
REM COMMAND_LINE
REM seed 1978252012 454676738 957452845 -648612576 -1149128189 -967139664 -1569216554 299090431 1429112342 -2103253361 -1607111617 1944147433
REM
REM S 3|1.8|5|6|7|30:31:32(qc=5)
REM O 2|1.5|12|13|15|20:21(qc=5)
REM Li 1|1.3|8|9|10|10U:20(qc=5)
REM Fe 3|2.2|2.0|1.0|8|9|10|40:41:32(qc=5)
REM 
CELL 1.54180    5.14192    5.14192    5.94085   64.35724   64.35724   60.00000
LATT -1
SFAC Li O  S  Fe 
Li     1 -0.5792580000000 -0.0046570000000 -0.4035300000000 1.0  -0.03
Li     1 -0.0125550000000 -0.5792580000000 -0.4035300000000 1.0  -0.03
Li     1 -0.0046570000000 -0.0125550000000 -0.4035300000000 1.0  -0.03
O      2  0.2248770000000  0.2248770000000  0.3253690000000 1.0   0.43
O      2  0.0424300000000  0.0424300000000 -0.1272890000000 1.0   0.58
S      3 -0.5206790000000 -0.5206790000000  0.5620380000000 1.0   0.19
Fe     4  0.3372150000000  0.3372150000000 -0.0116450000000 1.0   3.87
END
