TITL LFSO-Li3Fe3SO5-200926-105839-73c2b4 -0.0060 372.556070 -1.13654324E+004 17.9931 18.3031 24 (P3) n - 1
REM
REM Run started: Sat, 26 Sep 2020 22:55:39 +0100 in /lustre/scratch/uccabz1/launch_tmp/launcher_2020-09-26-09-58-37-797638
REM CASTEP 20.1 from code version af48c487+ pr-geom-scf-spinfix Tue Jun 2 15:39:59 2020 +0100
REM Functional Perdew Burke Ernzerhof Relativity Koelling-Harmon Dispersion off
REM Cut-off 340.0000 eV Grid scale 1.7500 Gmax 16.5316 1/A FBSC none
REM MP grid 3 3 2 Offset 0.000 0.000 0.000 No. kpts 5 Spacing 0.07
REM Total runtime: 44518 s
REM Overall efficiency: 73.4545 %
REM
REM
REM
REM compiler GCC version 4.9.2
REM options -cpp -iprefix /lustre/shared/ucl/apps/gcc/4.9.2/bin/../lib/gcc/x86_64-unknown-linux-gnu/4.9.2/ -mtune=corei7 -march=x86-64 -g -Og
REM COMMAND_LINE
REM seed -662855607 965658546 -1931136082 2111533184 636737666 69357744 -2101241165 -310362454 251374959 442659373 -1011797462 -470983342
REM
REM S 3|1.8|5|6|7|30:31:32(qc=5)
REM O 2|1.5|12|13|15|20:21(qc=5)
REM Li 1|1.3|8|9|10|10U:20(qc=5)
REM Fe 3|2.2|2.0|1.0|8|9|10|40:41:32(qc=5)
REM 
CELL 1.54180    6.86996    6.86996    9.11490   90.00000   90.00000  120.00000
LATT -1
SFAC Li O  S  Fe 
Li     1 -0.2512060000000  0.1313730000000 -0.1968180000000 1.0  -0.01
Li     1 -0.1313730000000 -0.3825800000000 -0.1968180000000 1.0  -0.01
Li     1  0.3825800000000  0.2512060000000 -0.1968180000000 1.0  -0.01
Li     1 -0.0513720000000  0.2739010000000  0.2167490000000 1.0   0.01
Li     1 -0.2739010000000 -0.3252730000000  0.2167490000000 1.0   0.01
Li     1  0.3252730000000  0.0513720000000  0.2167490000000 1.0   0.01
O      2  0.2445150000000  0.1418410000000  0.0360010000000 1.0  -0.00
O      2 -0.1418410000000  0.1026740000000  0.0360010000000 1.0  -0.00
O      2 -0.1026740000000 -0.2445150000000  0.0360010000000 1.0  -0.00
O      2 -0.0446020000000  0.3959140000000 -0.2966260000000 1.0   0.28
O      2 -0.3959140000000 -0.4405160000000 -0.2966260000000 1.0   0.28
O      2  0.4405160000000  0.0446020000000 -0.2966260000000 1.0   0.28
O      2 -0.0066440000000  0.4188200000000  0.3937080000000 1.0   0.32
O      2 -0.4188200000000 -0.4254640000000  0.3937080000000 1.0   0.32
O      2  0.4254640000000  0.0066440000000  0.3937080000000 1.0   0.32
O      2 -0.0000000000000 -0.0000000000000 -0.3411050000000 1.0   0.09
S      3 -0.0000000000000 -0.0000000000000  0.3627740000000 1.0   0.00
S      3 -0.0000000000000 -0.0000000000000 -0.0276130000000 1.0   0.00
Fe     4  0.3931450000000 -0.5167790000000 -0.4449340000000 1.0   3.28
Fe     4  0.5167790000000 -0.0900760000000 -0.4449340000000 1.0   3.28
Fe     4  0.0900760000000 -0.3931450000000 -0.4449340000000 1.0   3.28
Fe     4  0.2398190000000  0.0248350000000 -0.4625260000000 1.0   2.09
Fe     4 -0.0248350000000  0.2149850000000 -0.4625260000000 1.0   2.09
Fe     4 -0.2149850000000 -0.2398190000000 -0.4625260000000 1.0   2.09
END
