TITL LFSO-Li2Fe3S3O-200912-163647-6e6dd8 0.0095 180.426301 -4.33979467E+003 8.19014 8.53432 9 (R3) n - 1
REM
REM Run started: Sat, 12 Sep 2020 18:07:31 +0100 in /lustre/scratch/uccabz1/launch_tmp/launcher_2020-09-12-15-36-46-325841
REM CASTEP 20.1 from code version af48c487+ pr-geom-scf-spinfix Tue Jun 2 15:39:59 2020 +0100
REM Functional Perdew Burke Ernzerhof Relativity Koelling-Harmon Dispersion off
REM Cut-off 340.0000 eV Grid scale 1.7500 Gmax 16.5316 1/A FBSC none
REM MP grid 3 3 3 Offset 0.000 0.000 0.000 No. kpts 6 Spacing 0.07
REM Total runtime: 5597.7 s
REM Overall efficiency: 94.5 %
REM
REM
REM
REM compiler GCC version 4.9.2
REM options -cpp -iprefix /lustre/shared/ucl/apps/gcc/4.9.2/bin/../lib/gcc/x86_64-unknown-linux-gnu/4.9.2/ -mtune=corei7 -march=x86-64 -g -Og
REM COMMAND_LINE
REM seed -270355306 359453645 1778818618 1039054364 1010815137 -344941711 87197350 507407797 510065532 -2057975018 -764538959 953186323
REM
REM S 3|1.8|5|6|7|30:31:32(qc=5)
REM O 2|1.5|12|13|15|20:21(qc=5)
REM Li 1|1.3|8|9|10|10U:20(qc=5)
REM Fe 3|2.2|2.0|1.0|8|9|10|40:41:32(qc=5)
REM 
CELL 1.54180    5.65245    5.65245    5.65245   88.55061   88.55061   88.55061
LATT -1
SFAC Li O  S  Fe 
Li     1  0.3530800000000  0.3530800000000  0.3530800000000 1.0   0.03
Li     1  0.0510380000000  0.0510380000000  0.0510380000000 1.0  -0.01
O      2 -0.3130610000000 -0.3130610000000 -0.3130610000000 1.0   0.17
S      3  0.2543130000000 -0.3190110000000  0.0860020000000 1.0   0.06
S      3 -0.3190110000000  0.0860020000000  0.2543130000000 1.0   0.06
S      3  0.0860020000000  0.2543130000000 -0.3190110000000 1.0   0.06
Fe     4 -0.0230780000000 -0.3841380000000 -0.1779180000000 1.0   2.61
Fe     4 -0.3841380000000 -0.1779180000000 -0.0230780000000 1.0   2.61
Fe     4 -0.1779180000000 -0.0230780000000 -0.3841380000000 1.0   2.61
END
