TITL LFSO-Li3Fe3S4O2-200929-154223-f8bf0a -0.0148 286.395197 -5.28074814E+003 3.11772 8.49299 12 (Pmm2) n - 1
REM
REM Run started: Wed, 30 Sep 2020 04:14:42 +0100 in /lustre/scratch/uccabz1/launch_tmp/launcher_2020-09-30-02-14-50-800512
REM CASTEP 20.1 from code version af48c487+ pr-geom-scf-spinfix Tue Jun 2 15:39:59 2020 +0100
REM Functional Perdew Burke Ernzerhof Relativity Koelling-Harmon Dispersion off
REM Cut-off 340.0000 eV Grid scale 1.7500 Gmax 16.5316 1/A FBSC none
REM MP grid 5 3 2 Offset 0.000 0.000 0.000 No. kpts 6 Spacing 0.07
REM Total runtime: 47208.1 s
REM Overall efficiency: 96.2727 %
REM
REM
REM
REM compiler GCC version 4.9.2
REM options -cpp -iprefix /scratch/UCL/applications/gcc/4.9.2/bin/../lib/gcc/x86_64-unknown-linux-gnu/4.9.2/ -mtune=corei7 -march=x86-64 -g -O2
REM COMMAND_LINE
REM seed -23905629 2000717871 -41570579 890929652 -2014408533 2122077772 -1200776275 -299025903 -1713151835 -192503133 -1519129601 1346177723
REM
REM S 3|1.8|5|6|7|30:31:32(qc=5)
REM O 2|1.5|12|13|15|20:21(qc=5)
REM Li 1|1.3|8|9|10|10U:20(qc=5)
REM Fe 3|2.2|2.0|1.0|8|9|10|40:41:32(qc=5)
REM 
CELL 1.54180    3.47204    6.16630   13.37693   90.00000   90.00000   90.00000
LATT -1
SFAC Li O  S  Fe 
Li     1  0.0745520000000  0.0000000000000  0.2041730000000 1.0  -0.03
Li     1  0.0745520000000  0.0000000000000 -0.2041730000000 1.0  -0.03
Li     1  0.2756610000000  0.0000000000000  0.0000000000000 1.0   0.13
O      2  0.0794970000000 -0.5000000000000 -0.2889440000000 1.0   0.22
O      2  0.0794970000000  0.5000000000000  0.2889440000000 1.0   0.22
S      3 -0.4095690000000 -0.2529450000000 -0.1261180000000 1.0  -0.01
S      3 -0.4095690000000  0.2529450000000  0.1261180000000 1.0  -0.01
S      3 -0.4095690000000 -0.2529450000000  0.1261180000000 1.0  -0.01
S      3 -0.4095690000000  0.2529450000000 -0.1261180000000 1.0  -0.01
Fe     4 -0.4215770000000 -0.5000000000000 -0.2522700000000 1.0   2.55
Fe     4 -0.4215770000000  0.5000000000000  0.2522700000000 1.0   2.55
Fe     4  0.5769070000000 -0.5000000000000  0.0000000000000 1.0  -2.45
END
