TITL LFSO-Li2Fe4S2O3-200912-082804-bffb1b 0.0606 138.525244 -5.77578351E+003 12.0286 12.3193 11 (C2) n - 1
REM
REM Run started: Sat, 12 Sep 2020 11:19:37 +0100 in /lustre/scratch/uccabz1/launch_tmp/launcher_2020-09-12-07-28-01-699963
REM CASTEP 20.1 from code version af48c487+ pr-geom-scf-spinfix Tue Jun 2 15:39:59 2020 +0100
REM Functional Perdew Burke Ernzerhof Relativity Koelling-Harmon Dispersion off
REM Cut-off 340.0000 eV Grid scale 1.7500 Gmax 16.5316 1/A FBSC none
REM MP grid 5 4 2 Offset 0.000 0.000 0.000 No. kpts 20 Spacing 0.07
REM Total runtime: 10745.5 s
REM Overall efficiency: 96.5556 %
REM
REM
REM
REM compiler GCC version 4.9.2
REM options -cpp -iprefix /lustre/shared/ucl/apps/gcc/4.9.2/bin/../lib/gcc/x86_64-unknown-linux-gnu/4.9.2/ -mtune=corei7 -march=x86-64 -g -Og
REM COMMAND_LINE
REM seed -647950652 394599980 -1936981745 -1792166220 2137779489 361712647 -119099582 1019635783 -592831726 1024746079 -1391660254 964078237
REM
REM S 3|1.8|5|6|7|30:31:32(qc=5)
REM O 2|1.5|12|13|15|20:21(qc=5)
REM Li 1|1.3|8|9|10|10U:20(qc=5)
REM Fe 3|2.2|2.0|1.0|8|9|10|40:41:32(qc=5)
REM 
CELL 1.54180    3.32991    5.79882    8.94043  121.54423   89.99999  106.68559
LATT -1
SFAC Li O  S  Fe 
Li     1  0.5267420000000  0.2768770000000 -0.4230220000000 1.0  -0.01
Li     1  0.2498650000000 -0.2768770000000  0.4230220000000 1.0  -0.01
O      2  0.2631690000000 -0.3503720000000  0.1927720000000 1.0   0.21
O      2 -0.3864590000000  0.3503720000000 -0.1927720000000 1.0   0.21
O      2 -0.0877530000000  0.0000000000000 -0.5000000000000 1.0   0.20
S      3  0.2743710000000 -0.1892940000000 -0.2337850000000 1.0   0.07
S      3 -0.5363350000000  0.1892940000000  0.2337850000000 1.0   0.07
Fe     4  0.1101830000000 -0.3336360000000 -0.0200020000000 1.0   3.06
Fe     4  0.4438190000000  0.3336360000000  0.0200020000000 1.0   3.06
Fe     4 -0.1560370000000 -0.0704360000000  0.2571170000000 1.0   2.59
Fe     4 -0.0856010000000  0.0704360000000 -0.2571170000000 1.0   2.59
END
