TITL LFSO-Li4Fe3S2O3-200927-133046-ca2c99 -0.0813 168.823238 -5.31180680E+003 11.3841 11.6045 12 (R3) n - 1
REM
REM Run started: Sun, 27 Sep 2020 15:32:17 +0100 in /lustre/scratch/uccabz1/launch_tmp/launcher_2020-09-27-12-30-44-443923
REM CASTEP 20.1 from code version af48c487+ pr-geom-scf-spinfix Tue Jun 2 15:39:59 2020 +0100
REM Functional Perdew Burke Ernzerhof Relativity Koelling-Harmon Dispersion off
REM Cut-off 340.0000 eV Grid scale 1.7500 Gmax 16.5316 1/A FBSC none
REM MP grid 3 3 3 Offset 0.000 0.000 0.000 No. kpts 6 Spacing 0.07
REM Total runtime: 7776 s
REM Overall efficiency: 96.375 %
REM
REM
REM
REM compiler GCC version 4.9.2
REM options -cpp -iprefix /lustre/shared/ucl/apps/gcc/4.9.2/bin/../lib/gcc/x86_64-unknown-linux-gnu/4.9.2/ -mtune=corei7 -march=x86-64 -g -Og
REM COMMAND_LINE
REM seed -1960051082 1949393884 445243615 -1109517615 577181088 -1801802917 1975121603 -1067443857 1355341957 -1926716177 909007350 -1149072529
REM
REM S 3|1.8|5|6|7|30:31:32(qc=5)
REM O 2|1.5|12|13|15|20:21(qc=5)
REM Li 1|1.3|8|9|10|10U:20(qc=5)
REM Fe 3|2.2|2.0|1.0|8|9|10|40:41:32(qc=5)
REM 
CELL 1.54180    5.72163    5.72163    6.80964   65.15831   65.15831   60.00000
LATT -1
SFAC Li O  S  Fe 
Li     1  0.0167690000000 -0.3927510000000  0.1363350000000 1.0  -0.01
Li     1  0.2396470000000  0.0167690000000  0.1363350000000 1.0  -0.01
Li     1 -0.3927510000000  0.2396470000000  0.1363350000000 1.0  -0.01
Li     1 -0.3976220000000 -0.3976220000000  0.1928670000000 1.0   0.04
O      2  0.3403970000000 -0.3376720000000  0.0623430000000 1.0   0.30
O      2 -0.0650680000000  0.3403970000000  0.0623430000000 1.0   0.30
O      2 -0.3376720000000 -0.0650680000000  0.0623430000000 1.0   0.30
S      3  0.4662260000000  0.4662260000000 -0.3986790000000 1.0   0.20
S      3  0.1526890000000  0.1526890000000 -0.4580680000000 1.0   0.17
Fe     4 -0.2323170000000  0.0166340000000 -0.2416840000000 1.0   3.37
Fe     4 -0.5426330000000 -0.2323170000000 -0.2416840000000 1.0   3.37
Fe     4  0.0166340000000 -0.5426330000000 -0.2416840000000 1.0   3.37
END
