TITL LFSO-Li4FeSO2-200910-075312-78d0d6 0.0108 125.396090 -2.84228944E+003 4.00000 4.09366 8 (R3) n - 1
REM
REM Run started: Thu, 10 Sep 2020 08:24:40 +0100 in /lustre/scratch/uccabz1/launch_tmp/launcher_2020-09-10-06-53-09-886875
REM CASTEP 20.1 from code version af48c487+ pr-geom-scf-spinfix Tue Jun 2 15:39:59 2020 +0100
REM Functional Perdew Burke Ernzerhof Relativity Koelling-Harmon Dispersion off
REM Cut-off 340.0000 eV Grid scale 1.7500 Gmax 16.5316 1/A FBSC none
REM MP grid 4 4 4 Offset 0.000 0.000 0.000 No. kpts 12 Spacing 0.07
REM Total runtime: 2351.05 s
REM Overall efficiency: 92 %
REM
REM
REM
REM compiler GCC version 4.9.2
REM options -cpp -iprefix /lustre/shared/ucl/apps/gcc/4.9.2/bin/../lib/gcc/x86_64-unknown-linux-gnu/4.9.2/ -mtune=corei7 -march=x86-64 -g -Og
REM COMMAND_LINE
REM seed 526972831 317264443 424466465 -634851341 -19584524 -1301635126 -2047235302 13512928 -1021628458 1462918065 245305673 476665514
REM
REM S 3|1.8|5|6|7|30:31:32(qc=5)
REM O 2|1.5|12|13|15|20:21(qc=5)
REM Li 1|1.3|8|9|10|10U:20(qc=5)
REM Fe 3|2.2|2.0|1.0|8|9|10|40:41:32(qc=5)
REM 
CELL 1.54180    6.04452    6.04452    6.04452   51.62930   51.62930   51.62930
LATT -1
SFAC Li O  S  Fe 
Li     1 -0.3307530000000  0.3752370000000  0.0852630000000 1.0  -0.01
Li     1  0.0852630000000 -0.3307530000000  0.3752370000000 1.0  -0.01
Li     1  0.3752370000000  0.0852630000000 -0.3307530000000 1.0  -0.01
Li     1 -0.1887700000000 -0.1887700000000 -0.1887700000000 1.0  -0.07
O      2 -0.3049540000000 -0.3049540000000 -0.3049540000000 1.0   0.13
O      2  0.4537320000000  0.4537320000000  0.4537320000000 1.0   0.15
S      3 -0.0497310000000 -0.0497310000000 -0.0497310000000 1.0   0.20
Fe     4  0.5732490000000  0.5732490000000  0.5732490000000 1.0   3.62
END
