TITL LFSO-Li2Fe3S2O2-200921-014955-9691b7 0.0514 262.684160 -8.94918851E+003 -11.9022 12.2077 18 (Pba2) n - 1
REM
REM Run started: Mon, 21 Sep 2020 12:58:55 +0100 in /lustre/scratch/uccabz1/launch_tmp/launcher_2020-09-21-00-49-53-863837
REM CASTEP 20.1 from code version af48c487+ pr-geom-scf-spinfix Tue Jun 2 15:39:59 2020 +0100
REM Functional Perdew Burke Ernzerhof Relativity Koelling-Harmon Dispersion off
REM Cut-off 340.0000 eV Grid scale 1.7500 Gmax 16.5316 1/A FBSC none
REM MP grid 4 3 2 Offset 0.000 0.000 0.000 No. kpts 4 Spacing 0.07
REM Total runtime: 42283.9 s
REM Overall efficiency: 97.1818 %
REM
REM
REM
REM compiler GCC version 4.9.2
REM options -cpp -iprefix /lustre/shared/ucl/apps/gcc/4.9.2/bin/../lib/gcc/x86_64-unknown-linux-gnu/4.9.2/ -mtune=corei7 -march=x86-64 -g -Og
REM COMMAND_LINE
REM seed -1152289026 46206364 -285573591 -518503931 1428488529 -664049024 27185591 -722984444 1311108373 -2117117632 -1142898007 466597887
REM
REM S 3|1.8|5|6|7|30:31:32(qc=5)
REM O 2|1.5|12|13|15|20:21(qc=5)
REM Li 1|1.3|8|9|10|10U:20(qc=5)
REM Fe 3|2.2|2.0|1.0|8|9|10|40:41:32(qc=5)
REM 
CELL 1.54180    3.70630    5.92102   11.97007   90.00000   90.00000   90.00000
LATT -1
SFAC Li O  S  Fe 
Li     1 -0.1775320000000 -0.2994610000000 -0.3797530000000 1.0   0.01
Li     1  0.1775320000000 -0.2994610000000  0.3797530000000 1.0   0.01
Li     1 -0.6775320000000 -0.2994610000000 -0.1202470000000 1.0   0.01
Li     1  0.6775320000000 -0.2994610000000  0.1202470000000 1.0   0.01
O      2  0.1921770000000 -0.4346900000000  0.0998390000000 1.0  -0.14
O      2 -0.1921770000000 -0.4346900000000 -0.0998390000000 1.0  -0.14
O      2 -0.3078230000000 -0.4346900000000  0.4001610000000 1.0  -0.14
O      2  0.3078230000000 -0.4346900000000 -0.4001610000000 1.0  -0.14
S      3 -0.2652260000000  0.1214760000000  0.1334710000000 1.0  -0.08
S      3  0.2652260000000  0.1214760000000 -0.1334710000000 1.0  -0.08
S      3 -0.7652260000000  0.1214760000000  0.3665290000000 1.0  -0.08
S      3  0.7652260000000  0.1214760000000 -0.3665290000000 1.0  -0.08
Fe     4  0.2279090000000  0.3195800000000  0.1942500000000 1.0  -1.56
Fe     4 -0.2279090000000  0.3195800000000 -0.1942500000000 1.0  -1.56
Fe     4 -0.2720910000000  0.3195800000000  0.3057500000000 1.0  -1.56
Fe     4  0.2720910000000  0.3195800000000 -0.3057500000000 1.0  -1.56
Fe     4 -0.0000000000000  0.3548290000000  0.0000000000000 1.0  -2.42
Fe     4 -0.5000000000000  0.3548290000000 -0.5000000000000 1.0  -2.42
END
