TITL LFSO-Li4Fe3S4O-200926-110223-3a3624 0.2073 225.269198 -5.04314934E+003 8.28823 8.64192 12 (R3) n - 1
REM
REM Run started: Sat, 26 Sep 2020 15:19:31 +0100 in /lustre/scratch/uccabz1/launch_tmp/launcher_2020-09-26-10-02-20-669053
REM CASTEP 20.1 from code version af48c487+ pr-geom-scf-spinfix Tue Jun 2 15:39:59 2020 +0100
REM Functional Perdew Burke Ernzerhof Relativity Koelling-Harmon Dispersion off
REM Cut-off 340.0000 eV Grid scale 1.7500 Gmax 16.5316 1/A FBSC none
REM MP grid 3 3 3 Offset 0.000 0.000 0.000 No. kpts 6 Spacing 0.07
REM Total runtime: 16957.1 s
REM Overall efficiency: 97.0833 %
REM
REM
REM
REM compiler GCC version 4.9.2
REM options -cpp -iprefix /lustre/shared/ucl/apps/gcc/4.9.2/bin/../lib/gcc/x86_64-unknown-linux-gnu/4.9.2/ -mtune=corei7 -march=x86-64 -g -Og
REM COMMAND_LINE
REM seed -2081985269 -467970331 -986124669 -1894219857 -830178060 -638292709 72070924 1578796448 -403415945 2003516910 -319376 -1201556155
REM
REM S 3|1.8|5|6|7|30:31:32(qc=5)
REM O 2|1.5|12|13|15|20:21(qc=5)
REM Li 1|1.3|8|9|10|10U:20(qc=5)
REM Fe 3|2.2|2.0|1.0|8|9|10|40:41:32(qc=5)
REM 
CELL 1.54180    6.09438    6.09438    6.09438   93.17885   93.17885   93.17885
LATT -1
SFAC Li O  S  Fe 
Li     1 -0.0542220000000  0.5837630000000 -0.1427830000000 1.0  -0.04
Li     1  0.5837630000000 -0.1427830000000 -0.0542220000000 1.0  -0.04
Li     1 -0.1427830000000 -0.0542220000000  0.5837630000000 1.0  -0.04
Li     1  0.5504280000000  0.5504280000000  0.5504280000000 1.0   0.00
O      2 -0.2649270000000 -0.2649270000000 -0.2649270000000 1.0   0.06
S      3  0.4826270000000  0.2045530000000 -0.2661680000000 1.0   0.14
S      3  0.2045530000000 -0.2661680000000  0.4826270000000 1.0   0.14
S      3 -0.2661680000000  0.4826270000000  0.2045530000000 1.0   0.14
S      3  0.1019230000000  0.1019230000000  0.1019230000000 1.0   0.02
Fe     4  0.0941990000000  0.4219410000000  0.2944370000000 1.0   2.63
Fe     4  0.4219410000000  0.2944370000000  0.0941990000000 1.0   2.63
Fe     4  0.2944370000000  0.0941990000000  0.4219410000000 1.0   2.63
END
