TITL LFSO-Li4Fe3S2O3-201001-100540-3df689 0.0038 321.171796 -1.06238892E+004 21.0732 21.3671 24 (R3) n - 1
REM
REM Run started: Thu, 01 Oct 2020 14:37:50 +0100 in /lustre/scratch/uccabz1/launch_tmp/launcher_2020-10-01-09-05-38-329332
REM CASTEP 20.1 from code version af48c487+ pr-geom-scf-spinfix Tue Jun 2 15:39:59 2020 +0100
REM Functional Perdew Burke Ernzerhof Relativity Koelling-Harmon Dispersion off
REM Cut-off 340.0000 eV Grid scale 1.7500 Gmax 16.5316 1/A FBSC none
REM MP grid 3 3 3 Offset 0.000 0.000 0.000 No. kpts 6 Spacing 0.07
REM Total runtime: 16500.5 s
REM Overall efficiency: 96.5 %
REM
REM
REM
REM compiler GCC version 4.9.2
REM options -cpp -iprefix /lustre/shared/ucl/apps/gcc/4.9.2/bin/../lib/gcc/x86_64-unknown-linux-gnu/4.9.2/ -mtune=corei7 -march=x86-64 -g -Og
REM COMMAND_LINE
REM seed -2057842155 -301933387 1347281515 220209866 -1371161273 1803193070 -795591093 1948448880 725135535 -1017223478 -307263207 1894282584
REM
REM S 3|1.8|5|6|7|30:31:32(qc=5)
REM O 2|1.5|12|13|15|20:21(qc=5)
REM Li 1|1.3|8|9|10|10U:20(qc=5)
REM Fe 3|2.2|2.0|1.0|8|9|10|40:41:32(qc=5)
REM 
CELL 1.54180    7.03173    7.03173    7.03173  101.96285  101.96285  101.96285
LATT -1
SFAC Li O  S  Fe 
Li     1  0.1177190000000  0.1623430000000  0.5926550000000 1.0  -0.02
Li     1  0.1623430000000  0.5926550000000  0.1177190000000 1.0  -0.02
Li     1  0.5926550000000  0.1177190000000  0.1623430000000 1.0  -0.02
Li     1  0.2476430000000 -0.0601420000000 -0.6536600000000 1.0   0.02
Li     1 -0.0601420000000 -0.6536600000000  0.2476430000000 1.0   0.02
Li     1 -0.6536600000000  0.2476430000000 -0.0601420000000 1.0   0.02
Li     1  0.2725830000000  0.2725830000000  0.2725830000000 1.0   0.03
Li     1  0.0324520000000  0.0324520000000  0.0324520000000 1.0  -0.07
O      2  0.3186990000000  0.0443620000000  0.1016500000000 1.0   0.21
O      2  0.0443620000000  0.1016500000000  0.3186990000000 1.0   0.21
O      2  0.1016500000000  0.3186990000000  0.0443620000000 1.0   0.21
O      2 -0.0083480000000 -0.3182130000000  0.2830490000000 1.0   0.26
O      2 -0.3182130000000  0.2830490000000 -0.0083480000000 1.0   0.26
O      2  0.2830490000000 -0.0083480000000 -0.3182130000000 1.0   0.26
S      3  0.1496350000000 -0.4893930000000 -0.2914720000000 1.0   0.12
S      3 -0.4893930000000 -0.2914720000000  0.1496350000000 1.0   0.12
S      3 -0.2914720000000  0.1496350000000 -0.4893930000000 1.0   0.12
S      3 -0.2254160000000 -0.2254160000000 -0.2254160000000 1.0   0.27
Fe     4 -0.1677160000000 -0.1057380000000  0.3216260000000 1.0   2.93
Fe     4 -0.1057380000000  0.3216260000000 -0.1677160000000 1.0   2.93
Fe     4  0.3216260000000 -0.1677160000000 -0.1057380000000 1.0   2.93
Fe     4 -0.4167980000000  0.0149090000000 -0.2524090000000 1.0   3.43
Fe     4  0.0149090000000 -0.2524090000000 -0.4167980000000 1.0   3.43
Fe     4 -0.2524090000000 -0.4167980000000  0.0149090000000 1.0   3.43
END
