TITL LFSO-Li2Fe4S4O-200911-203321-3a805c -0.1855 347.631538 -1.10152854E+004 6.70684 19.4336 22 (R3) n - 1
REM
REM Run started: Sat, 12 Sep 2020 11:28:53 +0100 in /lustre/scratch/uccabz1/launch_tmp/launcher_2020-09-12-09-27-59-859518
REM CASTEP 20.1 from code version af48c487+ pr-geom-scf-spinfix Tue Jun 2 15:39:59 2020 +0100
REM Functional Perdew Burke Ernzerhof Relativity Koelling-Harmon Dispersion off
REM Cut-off 340.0000 eV Grid scale 1.7500 Gmax 16.5316 1/A FBSC none
REM MP grid 3 3 3 Offset 0.000 0.000 0.000 No. kpts 6 Spacing 0.07
REM Total runtime: 56684.8 s
REM Overall efficiency: 98.7273 %
REM
REM
REM
REM compiler GCC version 4.9.2
REM options -cpp -iprefix /lustre/shared/ucl/apps/gcc/4.9.2/bin/../lib/gcc/x86_64-unknown-linux-gnu/4.9.2/ -mtune=corei7 -march=x86-64 -g -Og
REM COMMAND_LINE
REM seed -975488877 909130919 873708077 -893456375 -1739755220 148370294 -2099254395 -1360307260 1365302352 983686036 -1718199244 -451846587
REM
REM S 3|1.8|5|6|7|30:31:32(qc=5)
REM O 2|1.5|12|13|15|20:21(qc=5)
REM Li 1|1.3|8|9|10|10U:20(qc=5)
REM Fe 3|2.2|2.0|1.0|8|9|10|40:41:32(qc=5)
REM 
CELL 1.54180    7.76452    7.76452    7.76452   62.25041   62.25041   62.25041
LATT -1
SFAC Li O  S  Fe 
Li     1  0.4060770000000  0.3528170000000 -0.1140640000000 1.0  -0.01
Li     1  0.3528170000000 -0.1140640000000  0.4060770000000 1.0  -0.01
Li     1 -0.1140640000000  0.4060770000000  0.3528170000000 1.0  -0.01
Li     1  0.4557980000000  0.4557980000000  0.4557980000000 1.0   0.03
O      2 -0.2673020000000 -0.2673020000000 -0.2673020000000 1.0  -0.00
O      2 -0.4138380000000 -0.4138380000000 -0.4138380000000 1.0   0.32
S      3  0.1639570000000 -0.3103240000000 -0.2073890000000 1.0  -0.01
S      3 -0.3103240000000 -0.2073890000000  0.1639570000000 1.0  -0.01
S      3 -0.2073890000000  0.1639570000000 -0.3103240000000 1.0  -0.01
S      3  0.0759890000000 -0.4317810000000  0.4137620000000 1.0  -0.03
S      3 -0.4317810000000  0.4137620000000  0.0759890000000 1.0  -0.03
S      3  0.4137620000000  0.0759890000000 -0.4317810000000 1.0  -0.03
S      3  0.1851350000000  0.1851350000000  0.1851350000000 1.0  -0.21
S      3  0.0330750000000  0.0330750000000  0.0330750000000 1.0  -0.10
Fe     4 -0.1920800000000 -0.5599150000000 -0.2722040000000 1.0   3.02
Fe     4 -0.5599150000000 -0.2722040000000 -0.1920800000000 1.0   3.02
Fe     4 -0.2722040000000 -0.1920800000000 -0.5599150000000 1.0   3.02
Fe     4  0.0241730000000 -0.2596740000000  0.1031940000000 1.0   1.13
Fe     4 -0.2596740000000  0.1031940000000  0.0241730000000 1.0   1.13
Fe     4  0.1031940000000  0.0241730000000 -0.2596740000000 1.0   1.13
Fe     4  0.3031440000000  0.3031440000000  0.3031440000000 1.0  -2.82
Fe     4 -0.1688560000000 -0.1688560000000 -0.1688560000000 1.0  -2.87
END
