TITL LFSO-Li2Fe4S4O-200911-225401-afd266 0.0314 297.922698 -1.10116781E+004 0.318906E-01 0.567263E-01 22 (P222) n - 1
REM
REM Run started: Sat, 12 Sep 2020 06:25:24 +0100 in /lustre/scratch/uccabz1/launch_tmp/launcher_2020-09-11-21-53-59-568790
REM CASTEP 20.1 from code version af48c487+ pr-geom-scf-spinfix Tue Jun 2 15:39:59 2020 +0100
REM Functional Perdew Burke Ernzerhof Relativity Koelling-Harmon Dispersion off
REM Cut-off 340.0000 eV Grid scale 1.7500 Gmax 16.5316 1/A FBSC none
REM MP grid 3 3 2 Offset 0.000 0.000 0.000 No. kpts 4 Spacing 0.07
REM Total runtime: 27220.7 s
REM Overall efficiency: 92.375 %
REM
REM
REM
REM compiler GCC version 4.9.2
REM options -cpp -iprefix /lustre/shared/ucl/apps/gcc/4.9.2/bin/../lib/gcc/x86_64-unknown-linux-gnu/4.9.2/ -mtune=corei7 -march=x86-64 -g -Og
REM COMMAND_LINE
REM seed 2014072951 -183919192 -278059248 544137111 1693583264 2134952819 626073518 -1316288612 1751564316 -770652851 -2058300060 792762011
REM
REM S 3|1.8|5|6|7|30:31:32(qc=5)
REM O 2|1.5|12|13|15|20:21(qc=5)
REM Li 1|1.3|8|9|10|10U:20(qc=5)
REM Fe 3|2.2|2.0|1.0|8|9|10|40:41:32(qc=5)
REM 
CELL 1.54180    5.68364    6.58813    7.95637   90.00000   90.00000   90.00000
LATT -1
SFAC Li O  S  Fe 
Li     1 -0.2868850000000  0.0401000000000 -0.1186460000000 1.0   0.00
Li     1 -0.2868850000000 -0.0401000000000  0.1186460000000 1.0   0.00
Li     1  0.2868850000000 -0.0401000000000 -0.1186460000000 1.0   0.00
Li     1  0.2868850000000  0.0401000000000  0.1186460000000 1.0   0.00
O      2  0.5000000000000 -0.2036570000000  0.0000000000000 1.0   0.00
O      2  0.5000000000000  0.2036570000000  0.0000000000000 1.0   0.00
S      3 -0.2924200000000 -0.1830600000000 -0.3388960000000 1.0   0.00
S      3 -0.2924200000000  0.1830600000000  0.3388960000000 1.0   0.00
S      3  0.2924200000000  0.1830600000000 -0.3388960000000 1.0   0.00
S      3  0.2924200000000 -0.1830600000000  0.3388960000000 1.0   0.00
S      3 -0.1747900000000 -0.3495470000000  0.1971090000000 1.0   0.00
S      3 -0.1747900000000  0.3495470000000 -0.1971090000000 1.0   0.00
S      3  0.1747900000000  0.3495470000000  0.1971090000000 1.0   0.00
S      3  0.1747900000000 -0.3495470000000 -0.1971090000000 1.0   0.00
Fe     4  0.1899260000000 -0.3365110000000  0.0934980000000 1.0  -0.00
Fe     4  0.1899260000000  0.3365110000000 -0.0934980000000 1.0  -0.00
Fe     4 -0.1899260000000  0.3365110000000  0.0934980000000 1.0  -0.00
Fe     4 -0.1899260000000 -0.3365110000000 -0.0934980000000 1.0  -0.00
Fe     4  0.3369070000000  0.1484300000000  0.3906190000000 1.0   0.01
Fe     4  0.3369070000000 -0.1484300000000 -0.3906190000000 1.0   0.01
Fe     4 -0.3369070000000 -0.1484300000000  0.3906190000000 1.0   0.01
Fe     4 -0.3369070000000  0.1484300000000 -0.3906190000000 1.0   0.01
END
