TITL LFSO-Li3Fe3S5O-200929-100446-a7c887 0.0347 422.924185 -1.02932041E+004 15.5441 16.4393 24 (R3) n - 1
REM
REM Run started: Tue, 29 Sep 2020 14:49:58 +0100 in /lustre/scratch/uccabz1/launch_tmp/launcher_2020-09-29-09-04-44-613495
REM CASTEP 20.1 from code version af48c487+ pr-geom-scf-spinfix Tue Jun 2 15:39:59 2020 +0100
REM Functional Perdew Burke Ernzerhof Relativity Koelling-Harmon Dispersion off
REM Cut-off 340.0000 eV Grid scale 1.7500 Gmax 16.5316 1/A FBSC none
REM MP grid 2 2 2 Offset 0.000 0.000 0.000 No. kpts 2 Spacing 0.07
REM Total runtime: 17168.4 s
REM Overall efficiency: 80.5556 %
REM
REM
REM
REM compiler GCC version 4.9.2
REM options -cpp -iprefix /lustre/shared/ucl/apps/gcc/4.9.2/bin/../lib/gcc/x86_64-unknown-linux-gnu/4.9.2/ -mtune=corei7 -march=x86-64 -g -Og
REM COMMAND_LINE
REM seed -600696018 -912033750 1604041718 2040034609 -2009788392 -543830887 1641470816 2048142316 -1193770712 -286440310 534535363 830519917
REM
REM S 3|1.8|5|6|7|30:31:32(qc=5)
REM O 2|1.5|12|13|15|20:21(qc=5)
REM Li 1|1.3|8|9|10|10U:20(qc=5)
REM Fe 3|2.2|2.0|1.0|8|9|10|40:41:32(qc=5)
REM 
CELL 1.54180    7.69612    7.69612    7.69612   76.43602   76.43602   76.43602
LATT -1
SFAC Li O  S  Fe 
Li     1  0.5091480000000 -0.1331500000000 -0.4127910000000 1.0   0.01
Li     1 -0.4127910000000  0.5091480000000 -0.1331500000000 1.0   0.01
Li     1 -0.1331500000000 -0.4127910000000  0.5091480000000 1.0   0.01
Li     1 -0.0634800000000  0.0571200000000  0.2689970000000 1.0   0.02
Li     1  0.2689970000000 -0.0634800000000  0.0571200000000 1.0   0.02
Li     1  0.0571200000000  0.2689970000000 -0.0634800000000 1.0   0.02
O      2 -0.3006280000000 -0.3006280000000 -0.3006280000000 1.0   0.00
O      2  0.1432370000000  0.1432370000000  0.1432370000000 1.0  -0.08
S      3 -0.3698260000000  0.1456700000000  0.4823220000000 1.0   0.11
S      3  0.4823220000000 -0.3698260000000  0.1456700000000 1.0   0.11
S      3  0.1456700000000  0.4823220000000 -0.3698260000000 1.0   0.11
S      3 -0.2391260000000  0.2087210000000 -0.0192700000000 1.0   0.18
S      3 -0.0192700000000 -0.2391260000000  0.2087210000000 1.0   0.18
S      3  0.2087210000000 -0.0192700000000 -0.2391260000000 1.0   0.18
S      3  0.4043680000000  0.2493500000000 -0.0915290000000 1.0   0.03
S      3 -0.0915290000000  0.4043680000000  0.2493500000000 1.0   0.03
S      3  0.2493500000000 -0.0915290000000  0.4043680000000 1.0   0.03
S      3 -0.1960630000000 -0.1960630000000 -0.1960630000000 1.0   0.04
Fe     4 -0.3421520000000  0.1111320000000 -0.2211700000000 1.0   2.41
Fe     4 -0.2211700000000 -0.3421520000000  0.1111320000000 1.0   2.41
Fe     4  0.1111320000000 -0.2211700000000 -0.3421520000000 1.0   2.41
Fe     4  0.2249090000000 -0.3490570000000  0.3587840000000 1.0   2.43
Fe     4  0.3587840000000  0.2249090000000 -0.3490570000000 1.0   2.43
Fe     4 -0.3490570000000  0.3587840000000  0.2249090000000 1.0   2.43
END
