TITL LFSO-Li4Fe3SO4-200930-133324-a9e9ae 0.0520 428.190612 -1.08894456E+004 -17.9889 18.8663 24 (Pc) n - 1
REM
REM Run started: Thu, 01 Oct 2020 14:13:54 +0100 in /lustre/scratch/uccabz1/launch_tmp/launcher_2020-09-30-12-33-22-510694
REM CASTEP 20.1 from code version af48c487+ pr-geom-scf-spinfix Tue Jun 2 15:39:59 2020 +0100
REM Functional Perdew Burke Ernzerhof Relativity Koelling-Harmon Dispersion off
REM Cut-off 340.0000 eV Grid scale 1.7500 Gmax 16.5316 1/A FBSC none
REM MP grid 2 3 2 Offset 0.000 0.000 0.000 No. kpts 3 Spacing 0.07
REM Total runtime: 88933 s
REM Overall efficiency: 87.1667 %
REM
REM
REM
REM compiler GCC version 4.9.2
REM options -cpp -iprefix /lustre/shared/ucl/apps/gcc/4.9.2/bin/../lib/gcc/x86_64-unknown-linux-gnu/4.9.2/ -mtune=corei7 -march=x86-64 -g -Og
REM COMMAND_LINE
REM seed 485539436 -1348482355 -722006688 42947430 -1170862410 -1763352413 -1792374450 1794400996 -508590270 1136329336 -544852380 -1945598418
REM
REM S 3|1.8|5|6|7|30:31:32(qc=5)
REM O 2|1.5|12|13|15|20:21(qc=5)
REM Li 1|1.3|8|9|10|10U:20(qc=5)
REM Fe 3|2.2|2.0|1.0|8|9|10|40:41:32(qc=5)
REM 
CELL 1.54180    8.69160    5.13476    9.90772  104.44795   90.00000   90.00000
LATT -1
SFAC Li O  S  Fe 
Li     1 -0.2464230000000 -0.6109890000000  0.0316770000000 1.0   0.06
Li     1  0.2464230000000 -0.1109890000000  0.0316770000000 1.0   0.06
Li     1  0.2649570000000  0.3426620000000 -0.2601600000000 1.0   0.07
Li     1 -0.2649570000000 -0.1573380000000 -0.2601600000000 1.0   0.07
Li     1 -0.1119650000000  0.4496130000000 -0.3840750000000 1.0  -0.02
Li     1  0.1119650000000 -0.0503870000000 -0.3840750000000 1.0  -0.02
Li     1  0.5350300000000 -0.6765090000000 -0.3971490000000 1.0   0.07
Li     1 -0.5350300000000 -0.1765090000000 -0.3971490000000 1.0   0.07
O      2 -0.0190630000000 -0.2322450000000 -0.2779350000000 1.0  -0.15
O      2  0.0190630000000  0.2677550000000 -0.2779350000000 1.0  -0.15
O      2 -0.0395780000000  0.3955750000000 -0.0066810000000 1.0  -0.18
O      2  0.0395780000000 -0.1044250000000 -0.0066810000000 1.0  -0.18
O      2  0.3432880000000  0.0026840000000  0.2040150000000 1.0  -0.16
O      2 -0.3432880000000 -0.4973160000000  0.2040150000000 1.0  -0.16
O      2  0.3137680000000  0.0780970000000 -0.4244810000000 1.0  -0.15
O      2 -0.3137680000000 -0.4219030000000 -0.4244810000000 1.0  -0.15
S      3  0.4659900000000 -0.2781330000000 -0.1586670000000 1.0  -0.01
S      3 -0.4659900000000  0.2218670000000 -0.1586670000000 1.0  -0.01
Fe     4 -0.0000850000000  0.0833050000000 -0.1350840000000 1.0  -2.35
Fe     4  0.0000850000000 -0.4166950000000 -0.1350840000000 1.0  -2.35
Fe     4 -0.5090580000000  0.2851760000000  0.2490660000000 1.0  -3.04
Fe     4  0.5090580000000 -0.2148240000000  0.2490660000000 1.0  -3.04
Fe     4 -0.3153650000000  0.5488890000000  0.3929230000000 1.0  -3.13
Fe     4  0.3153650000000  0.0488890000000  0.3929230000000 1.0  -3.13
END
