TITL LFSO-Li2Fe2SO3-200913-105515-6c3ca8 0.0035 321.446213 -7.48893951E+003 -5.91037 11.0689 16 (P3) n - 1
REM
REM Run started: Mon, 14 Sep 2020 05:13:46 +0100 in /lustre/scratch/uccabz1/launch_tmp/launcher_2020-09-13-09-55-09-175619
REM CASTEP 20.1 from code version af48c487+ pr-geom-scf-spinfix Tue Jun 2 15:39:59 2020 +0100
REM Functional Perdew Burke Ernzerhof Relativity Koelling-Harmon Dispersion off
REM Cut-off 340.0000 eV Grid scale 1.7500 Gmax 16.5316 1/A FBSC none
REM MP grid 3 3 2 Offset 0.000 0.000 0.000 No. kpts 5 Spacing 0.07
REM Total runtime: 59350.4 s
REM Overall efficiency: 88.8333 %
REM
REM
REM
REM compiler GCC version 4.9.2
REM options -cpp -iprefix /lustre/shared/ucl/apps/gcc/4.9.2/bin/../lib/gcc/x86_64-unknown-linux-gnu/4.9.2/ -mtune=corei7 -march=x86-64 -g -Og
REM COMMAND_LINE
REM seed -615212445 600955567 1990818172 -393424319 962766111 450066382 -4224672 -363882412 -27305438 1387774055 -1940986387 -1390194702
REM
REM S 3|1.8|5|6|7|30:31:32(qc=5)
REM O 2|1.5|12|13|15|20:21(qc=5)
REM Li 1|1.3|8|9|10|10U:20(qc=5)
REM Fe 3|2.2|2.0|1.0|8|9|10|40:41:32(qc=5)
REM 
CELL 1.54180    5.62519    5.62519   11.73014   90.00000   90.00000  120.00000
LATT -1
SFAC Li O  S  Fe 
Li     1 -0.0063690000000 -0.3383320000000  0.0435980000000 1.0   0.00
Li     1  0.3383320000000  0.3319630000000  0.0435980000000 1.0   0.00
Li     1 -0.3319630000000  0.0063690000000  0.0435980000000 1.0   0.00
Li     1  0.3333330000000 -0.3333330000000 -0.1735350000000 1.0  -0.00
O      2 -0.0178060000000  0.5948940000000 -0.1247270000000 1.0   0.13
O      2 -0.5948940000000 -0.6127000000000 -0.1247270000000 1.0   0.13
O      2  0.6127000000000  0.0178060000000 -0.1247270000000 1.0   0.13
O      2  0.0076940000000  0.3312320000000  0.1165350000000 1.0  -0.33
O      2 -0.3312320000000 -0.3235380000000  0.1165350000000 1.0  -0.33
O      2  0.3235380000000 -0.0076940000000  0.1165350000000 1.0  -0.33
S      3  0.3333330000000 -0.3333330000000  0.4064380000000 1.0   0.01
S      3 -0.0000000000000  0.0000000000000  0.3446750000000 1.0   0.20
Fe     4  0.1035110000000  0.3963210000000  0.2565180000000 1.0  -2.42
Fe     4 -0.3963210000000 -0.2928090000000  0.2565180000000 1.0  -2.42
Fe     4  0.2928090000000 -0.1035110000000  0.2565180000000 1.0  -2.42
Fe     4 -0.3333330000000  0.3333330000000 -0.1422730000000 1.0   1.72
END
