TITL LFSO-Li6FeSO3-200909-235207-fb4b1f -0.3490 361.323037 -7.35786243E+003 7.99394 8.34022 22 (C2/c) n - 1
REM
REM Run started: Thu, 10 Sep 2020 12:49:02 +0100 in /lustre/scratch/uccabz1/launch_tmp/launcher_2020-09-10-10-20-18-147050
REM CASTEP 20.1 from code version af48c487+ pr-geom-scf-spinfix Tue Jun 2 15:39:59 2020 +0100
REM Functional Perdew Burke Ernzerhof Relativity Koelling-Harmon Dispersion off
REM Cut-off 340.0000 eV Grid scale 1.7500 Gmax 16.5316 1/A FBSC none
REM MP grid 4 5 5 Offset 0.000 0.000 0.000 No. kpts 30 Spacing 0.07
REM Total runtime: 45678.4 s
REM Overall efficiency: 86.2 %
REM
REM
REM
REM compiler GCC version 4.9.2
REM options -cpp -iprefix /lustre/shared/ucl/apps/gcc/4.9.2/bin/../lib/gcc/x86_64-unknown-linux-gnu/4.9.2/ -mtune=corei7 -march=x86-64 -g -Og
REM COMMAND_LINE
REM seed -8903405 916180369 -2100071324 -1112647265 -479857693 1773816338 887162235 943579760 1822178915 -1554968864 336183865 1868202396
REM
REM S 3|1.8|5|6|7|30:31:32(qc=5)
REM O 2|1.5|12|13|15|20:21(qc=5)
REM Li 1|1.3|8|9|10|10U:20(qc=5)
REM Fe 3|2.2|2.0|1.0|8|9|10|40:41:32(qc=5)
REM 
CELL 1.54180   14.96157    9.43235    9.43235  106.06043  125.23302  125.23302
LATT -1
SFAC Li O  S  Fe 
Li     1 -0.6262530000000  0.0630420000000 -0.3992310000000 1.0  -0.06
Li     1  0.1262530000000  0.3992310000000 -0.0630420000000 1.0  -0.06
Li     1  0.6262530000000 -0.0630420000000  0.3992310000000 1.0  -0.06
Li     1 -0.1262530000000 -0.3992310000000  0.0630420000000 1.0  -0.06
Li     1  0.3419850000000  0.3229090000000  0.4909440000000 1.0   0.01
Li     1  0.1580150000000 -0.4909440000000 -0.3229090000000 1.0   0.01
Li     1 -0.3419850000000 -0.3229090000000 -0.4909440000000 1.0   0.01
Li     1 -0.1580150000000  0.4909440000000  0.3229090000000 1.0   0.01
Li     1 -0.0137820000000 -0.0218590000000 -0.6374070000000 1.0   0.00
Li     1 -0.4862180000000  0.6374070000000  0.0218590000000 1.0   0.00
Li     1  0.0137820000000  0.0218590000000  0.6374070000000 1.0   0.00
Li     1  0.4862180000000 -0.6374070000000 -0.0218590000000 1.0   0.00
O      2  0.2657340000000  0.1771240000000 -0.4362300000000 1.0   0.01
O      2  0.2342660000000  0.4362300000000 -0.1771240000000 1.0   0.01
O      2 -0.2657340000000 -0.1771240000000  0.4362300000000 1.0   0.01
O      2 -0.2342660000000 -0.4362300000000  0.1771240000000 1.0   0.01
O      2  0.2500000000000 -0.2810900000000  0.2810900000000 1.0   0.39
O      2 -0.2500000000000  0.2810900000000 -0.2810900000000 1.0   0.39
S      3 -0.2500000000000  0.0172750000000 -0.0172750000000 1.0   0.14
S      3  0.2500000000000 -0.0172750000000  0.0172750000000 1.0   0.14
Fe     4  0.2500000000000 -0.1628420000000  0.1628420000000 1.0   3.53
Fe     4 -0.2500000000000  0.1628420000000 -0.1628420000000 1.0   3.53
END
