TITL LFSO-LiFe3S4O-200909-105714-bb6b04 0.0451 298.201677 -8.88681129E+003 -8.48676 16.0119 18 (P3) n - 1
REM
REM Run started: Wed, 09 Sep 2020 18:43:07 +0100 in /lustre/scratch/uccabz1/launch_tmp/launcher_2020-09-09-09-57-12-967520
REM CASTEP 20.1 from code version af48c487+ pr-geom-scf-spinfix Tue Jun 2 15:39:59 2020 +0100
REM Functional Perdew Burke Ernzerhof Relativity Koelling-Harmon Dispersion off
REM Cut-off 340.0000 eV Grid scale 1.7500 Gmax 16.5316 1/A FBSC none
REM MP grid 2 3 3 Offset 0.000 0.000 0.000 No. kpts 5 Spacing 0.07
REM Total runtime: 28202.6 s
REM Overall efficiency: 85.7778 %
REM
REM
REM
REM compiler GCC version 4.9.2
REM options -cpp -iprefix /lustre/shared/ucl/apps/gcc/4.9.2/bin/../lib/gcc/x86_64-unknown-linux-gnu/4.9.2/ -mtune=corei7 -march=x86-64 -g -Og
REM COMMAND_LINE
REM seed -995695859 961277625 1284808976 314289203 2069914254 458575520 -1138033147 1674366457 -1040506647 -309170570 242741324 -1856333725
REM
REM S 3|1.8|5|6|7|30:31:32(qc=5)
REM O 2|1.5|12|13|15|20:21(qc=5)
REM Li 1|1.3|8|9|10|10U:20(qc=5)
REM Fe 3|2.2|2.0|1.0|8|9|10|40:41:32(qc=5)
REM 
CELL 1.54180    8.83476    6.24298    6.24298  120.00000   90.00000   90.00000
LATT -1
SFAC Li O  S  Fe 
Li     1  0.4244670000000  0.3333330000000 -0.3333330000000 1.0   0.06
Li     1 -0.2206650000000 -0.0000000000000  0.0000000000000 1.0  -0.01
O      2  0.2377000000000 -0.3333330000000  0.3333330000000 1.0  -0.40
O      2  0.1929270000000  0.3333330000000 -0.3333330000000 1.0  -0.27
S      3 -0.3616500000000 -0.3594920000000 -0.1810830000000 1.0  -0.00
S      3 -0.3616500000000  0.1810830000000 -0.1784090000000 1.0  -0.00
S      3 -0.3616500000000  0.1784090000000  0.3594920000000 1.0  -0.00
S      3 -0.0517060000000 -0.1769240000000 -0.3342470000000 1.0  -0.06
S      3 -0.0517060000000  0.3342470000000  0.1573230000000 1.0  -0.06
S      3 -0.0517060000000 -0.1573230000000  0.1769240000000 1.0  -0.06
S      3  0.2471660000000 -0.0000000000000  0.0000000000000 1.0  -0.89
S      3 -0.3906020000000 -0.3333330000000  0.3333330000000 1.0  -0.10
Fe     4  0.1339830000000 -0.4688530000000  0.0193040000000 1.0  -3.40
Fe     4  0.1339830000000 -0.0193040000000 -0.4881570000000 1.0  -3.40
Fe     4  0.1339830000000  0.4881570000000  0.4688530000000 1.0  -3.40
Fe     4 -0.2242040000000  0.5292440000000  0.0505240000000 1.0   1.17
Fe     4 -0.2242040000000 -0.0505240000000  0.4787200000000 1.0   1.17
Fe     4 -0.2242040000000 -0.4787200000000 -0.5292440000000 1.0   1.17
END
