TITL LFSO-Li2Fe4S4O-200911-231234-3a1fd0 -0.0482 201.518838 -5.50730746E+003 2.01141 5.75285 11 (C2) n - 1
REM
REM Run started: Sat, 12 Sep 2020 01:29:28 +0100 in /lustre/scratch/uccabz1/launch_tmp/launcher_2020-09-11-22-12-32-541069
REM CASTEP 20.1 from code version af48c487+ pr-geom-scf-spinfix Tue Jun 2 15:39:59 2020 +0100
REM Functional Perdew Burke Ernzerhof Relativity Koelling-Harmon Dispersion off
REM Cut-off 340.0000 eV Grid scale 1.7500 Gmax 16.5316 1/A FBSC none
REM MP grid 5 2 2 Offset 0.000 0.000 0.000 No. kpts 8 Spacing 0.07
REM Total runtime: 8287.59 s
REM Overall efficiency: 95 %
REM
REM
REM
REM compiler GCC version 4.9.2
REM options -cpp -iprefix /lustre/shared/ucl/apps/gcc/4.9.2/bin/../lib/gcc/x86_64-unknown-linux-gnu/4.9.2/ -mtune=corei7 -march=x86-64 -g -Og
REM COMMAND_LINE
REM seed 141197855 770096520 -806404516 744549827 -323853101 -1901015359 527466431 356203899 -1686096781 1042380855 -829849498 -1100679150
REM
REM S 3|1.8|5|6|7|30:31:32(qc=5)
REM O 2|1.5|12|13|15|20:21(qc=5)
REM Li 1|1.3|8|9|10|10U:20(qc=5)
REM Fe 3|2.2|2.0|1.0|8|9|10|40:41:32(qc=5)
REM 
CELL 1.54180    3.47741    8.20588    8.20588   99.07827   71.44624   71.44624
LATT -1
SFAC Li O  S  Fe 
Li     1  0.0497300000000  0.1381320000000  0.1450250000000 1.0  -0.04
Li     1 -0.0497300000000 -0.1450250000000 -0.1381320000000 1.0  -0.04
O      2 -0.5000000000000 -0.2969370000000  0.2969370000000 1.0  -0.04
S      3 -0.0252940000000  0.1377040000000  0.5512290000000 1.0  -0.00
S      3  0.0252940000000 -0.5512290000000 -0.1377040000000 1.0  -0.00
S      3  0.3373910000000  0.3495590000000  0.2111570000000 1.0   0.02
S      3 -0.3373910000000 -0.2111570000000 -0.3495590000000 1.0   0.02
Fe     4  0.3964780000000  0.0842740000000 -0.2895730000000 1.0   1.90
Fe     4 -0.3964780000000  0.2895730000000 -0.0842740000000 1.0   1.90
Fe     4 -0.2220280000000  0.4912570000000  0.1473490000000 1.0  -0.85
Fe     4  0.2220280000000 -0.1473490000000 -0.4912570000000 1.0  -0.85
END
