TITL LFSO-Li3Fe3S2O4-200929-175319-4f3730 0.0129 364.858232 -1.10974789E+004 14.7285 15.7837 24 (Ccc2) n - 1
REM
REM Run started: Wed, 30 Sep 2020 18:01:10 +0100 in /lustre/scratch/uccabz1/launch_tmp/launcher_2020-09-30-16-36-28-720226
REM CASTEP 20.1 from code version af48c487+ pr-geom-scf-spinfix Tue Jun 2 15:39:59 2020 +0100
REM Functional Perdew Burke Ernzerhof Relativity Koelling-Harmon Dispersion off
REM Cut-off 340.0000 eV Grid scale 1.7500 Gmax 16.5316 1/A FBSC none
REM MP grid 3 3 2 Offset 0.000 0.000 0.000 No. kpts 6 Spacing 0.07
REM Total runtime: 83572.9 s
REM Overall efficiency: 98.3 %
REM
REM
REM
REM compiler GCC version 4.9.2
REM options -cpp -iprefix /scratch/UCL/applications/gcc/4.9.2/bin/../lib/gcc/x86_64-unknown-linux-gnu/4.9.2/ -mtune=corei7 -march=x86-64 -g -O2
REM COMMAND_LINE
REM seed 1670294435 875699838 1467405945 1750644395 -1991449811 782173773 -699797087 -459271460 1939445997 -1744702637 1314782111 1310365280
REM
REM S 3|1.8|5|6|7|30:31:32(qc=5)
REM O 2|1.5|12|13|15|20:21(qc=5)
REM Li 1|1.3|8|9|10|10U:20(qc=5)
REM Fe 3|2.2|2.0|1.0|8|9|10|40:41:32(qc=5)
REM 
CELL 1.54180    7.15547    6.21732    8.94771   90.00000  113.56878   90.00000
LATT -1
SFAC Li O  S  Fe 
Li     1  0.4151670000000 -0.4558150000000 -0.2808770000000 1.0  -0.01
Li     1 -0.4151670000000 -0.4558150000000  0.2808770000000 1.0  -0.01
Li     1  0.3039560000000  0.0441850000000 -0.2808770000000 1.0  -0.01
Li     1 -0.3039560000000  0.0441850000000  0.2808770000000 1.0  -0.01
Li     1  0.5000000000000 -0.1803470000000  0.0000000000000 1.0   0.03
Li     1 -0.5000000000000  0.3196530000000  0.0000000000000 1.0   0.03
O      2 -0.2512910000000 -0.2297690000000  0.3551370000000 1.0   0.25
O      2  0.2512910000000 -0.2297690000000 -0.3551370000000 1.0   0.25
O      2 -0.3935720000000  0.2702310000000  0.3551370000000 1.0   0.25
O      2  0.3935720000000  0.2702310000000 -0.3551370000000 1.0   0.25
O      2 -0.2856020000000  0.0819560000000  0.0722170000000 1.0   0.27
O      2  0.2856020000000  0.0819560000000 -0.0722170000000 1.0   0.27
O      2  0.3578180000000 -0.4180440000000  0.0722170000000 1.0   0.27
O      2 -0.3578180000000 -0.4180440000000 -0.0722170000000 1.0   0.27
S      3 -0.1612940000000  0.3308670000000 -0.2839370000000 1.0  -0.10
S      3  0.1612940000000  0.3308670000000  0.2839370000000 1.0  -0.10
S      3 -0.1226430000000 -0.1691330000000 -0.2839370000000 1.0  -0.10
S      3  0.1226430000000 -0.1691330000000  0.2839370000000 1.0  -0.10
Fe     4 -0.0311860000000  0.0915800000000  0.1200340000000 1.0   1.80
Fe     4  0.0311860000000  0.0915800000000 -0.1200340000000 1.0   1.80
Fe     4  0.1512200000000 -0.4084200000000  0.1200340000000 1.0   1.80
Fe     4 -0.1512200000000 -0.4084200000000 -0.1200340000000 1.0   1.80
Fe     4  0.0000000000000 -0.2474180000000  0.5000000000000 1.0   2.92
Fe     4  0.5000000000000  0.2525820000000 -0.5000000000000 1.0   2.92
END
