TITL LFSO-Li4Fe2S3O-200911-013135-b98425 -0.1733 736.454204 -7.74847351E+003 -15.4811 16.0468 20 (Cm) n - 1
REM
REM Run started: Sat, 12 Sep 2020 09:23:21 +0100 in /lustre/scratch/uccabz1/launch_tmp/launcher_2020-09-12-05-27-16-028610
REM CASTEP 20.1 from code version af48c487+ pr-geom-scf-spinfix Tue Jun 2 15:39:59 2020 +0100
REM Functional Perdew Burke Ernzerhof Relativity Koelling-Harmon Dispersion off
REM Cut-off 340.0000 eV Grid scale 1.7500 Gmax 16.5316 1/A FBSC none
REM MP grid 3 3 2 Offset 0.000 0.000 0.000 No. kpts 6 Spacing 0.07
REM Total runtime: 109426 s
REM Overall efficiency: 92.8333 %
REM
REM
REM
REM compiler GCC version 4.9.2
REM options -cpp -iprefix /lustre/shared/ucl/apps/gcc/4.9.2/bin/../lib/gcc/x86_64-unknown-linux-gnu/4.9.2/ -mtune=corei7 -march=x86-64 -g -Og
REM COMMAND_LINE
REM seed 1800176268 -1096107708 -284528716 1683574211 -431182002 -1137722783 1162736976 -2072178642 -707872398 835598880 400065842 1260255233
REM
REM S 3|1.8|5|6|7|30:31:32(qc=5)
REM O 2|1.5|12|13|15|20:21(qc=5)
REM Li 1|1.3|8|9|10|10U:20(qc=5)
REM Fe 3|2.2|2.0|1.0|8|9|10|40:41:32(qc=5)
REM 
CELL 1.54180    8.59679    8.59679   14.55144   99.11454   99.11454  131.97438
LATT -1
SFAC Li O  S  Fe 
Li     1  0.3020320000000 -0.2250220000000 -0.0321060000000 1.0  -0.03
Li     1 -0.2250220000000  0.3020320000000 -0.0321060000000 1.0  -0.03
Li     1 -0.3722660000000  0.1261130000000  0.4918190000000 1.0   0.02
Li     1  0.1261130000000 -0.3722660000000  0.4918190000000 1.0   0.02
Li     1  0.4098430000000 -0.1724940000000 -0.2490330000000 1.0   0.06
Li     1 -0.1724940000000  0.4098430000000 -0.2490330000000 1.0   0.06
Li     1  0.2104210000000 -0.1143080000000  0.3755670000000 1.0   0.01
Li     1 -0.1143080000000  0.2104210000000  0.3755670000000 1.0   0.01
O      2  0.3334070000000 -0.0474960000000 -0.4911200000000 1.0  -0.20
O      2 -0.0474960000000  0.3334070000000 -0.4911200000000 1.0  -0.20
S      3 -0.4934370000000  0.1582190000000  0.0437910000000 1.0  -0.36
S      3  0.1582190000000 -0.4934370000000  0.0437910000000 1.0  -0.36
S      3  0.0313950000000  0.5000310000000  0.2999120000000 1.0  -0.17
S      3  0.5000310000000  0.0313950000000  0.2999120000000 1.0  -0.17
S      3 -0.4944770000000  0.1725220000000 -0.2134290000000 1.0  -0.19
S      3  0.1725220000000 -0.4944770000000 -0.2134290000000 1.0  -0.19
Fe     4  0.2101020000000 -0.3604980000000  0.1953320000000 1.0  -3.53
Fe     4 -0.3604980000000  0.2101020000000  0.1953320000000 1.0  -3.53
Fe     4  0.0889280000000  0.3644470000000 -0.3732830000000 1.0  -3.34
Fe     4  0.3644470000000  0.0889280000000 -0.3732830000000 1.0  -3.34
END
