TITL LFSO-Li4Fe3S2O3-200928-013849-3165fb -0.0069 168.672902 -5.31193529E+003 11.5108 11.7519 12 (R3) n - 1
REM
REM Run started: Mon, 28 Sep 2020 03:06:19 +0100 in /scratch/scratch/uccabz1/launch_tmp/launcher_2020-09-28-00-38-46-951576
REM CASTEP 19.11| from code version Version unavailable
REM Functional Perdew Burke Ernzerhof Relativity Koelling-Harmon Dispersion off
REM Cut-off 340.0000 eV Grid scale 1.7500 Gmax 16.5316 1/A FBSC none
REM MP grid 4 4 3 Offset 0.000 0.000 0.000 No. kpts 24 Spacing 0.07
REM Total runtime: 7938.86 s
REM Overall efficiency: 96.6667 %
REM
REM
REM
REM compiler GCC version 4.9.2
REM options -cpp -iprefix /scratch/UCL/applications/gcc/4.9.2/bin/../lib/gcc/x86_64-unknown-linux-gnu/4.9.2/ -mtune=corei7 -march=x86-64 -g -O2
REM COMMAND_LINE
REM seed -1103925449 90243414 -244854584 -1687918208 -654775805 -1009978375 -1024906101 -311232125 1295419308 -1906375331 -1840122470 420398912
REM
REM S 3|1.8|5|6|7|30:31:32(qc=5)
REM O 2|1.5|12|13|15|20:21(qc=5)
REM Li 1|1.3|8|9|10|10U:20(qc=5)
REM Fe 3|2.2|2.0|1.0|8|9|10|40:41:32(qc=5)
REM 
CELL 1.54180    5.71953    5.71953    6.80823   65.16257   65.16257   60.00000
LATT -1
SFAC Li O  S  Fe 
Li     1  0.1719780000000 -0.1948800000000 -0.3860150000000 1.0   0.02
Li     1  0.4089170000000  0.1719780000000 -0.3860150000000 1.0   0.02
Li     1 -0.1948800000000  0.4089170000000 -0.3860150000000 1.0   0.02
Li     1 -0.2658830000000 -0.2658830000000 -0.2023500000000 1.0  -0.06
O      2  0.4274730000000 -0.2305550000000 -0.2561570000000 1.0   0.32
O      2  0.0592380000000  0.4274730000000 -0.2561570000000 1.0   0.32
O      2 -0.2305550000000  0.0592380000000 -0.2561570000000 1.0   0.32
S      3  0.2494990000000  0.2494990000000  0.2515040000000 1.0   0.15
S      3 -0.4087190000000 -0.4087190000000  0.2261570000000 1.0   0.23
Fe     4 -0.3024710000000  0.0052720000000  0.0415960000000 1.0   3.39
Fe     4  0.2556030000000 -0.3024710000000  0.0415960000000 1.0   3.39
Fe     4  0.0052720000000  0.2556030000000  0.0415960000000 1.0   3.39
END
