TITL LFSO-Li4Fe3S3O2-200927-070420-bdcfb1 -0.0353 190.180541 -5.17863098E+003 11.9496 12.1121 12 (C2) n - 1
REM
REM Run started: Sun, 27 Sep 2020 09:59:13 +0100 in /lustre/scratch/uccabz1/launch_tmp/launcher_2020-09-27-06-04-18-181158
REM CASTEP 20.1 from code version af48c487+ pr-geom-scf-spinfix Tue Jun 2 15:39:59 2020 +0100
REM Functional Perdew Burke Ernzerhof Relativity Koelling-Harmon Dispersion off
REM Cut-off 340.0000 eV Grid scale 1.7500 Gmax 16.5316 1/A FBSC none
REM MP grid 5 3 3 Offset 0.000 0.000 0.000 No. kpts 22 Spacing 0.07
REM Total runtime: 12769.6 s
REM Overall efficiency: 97.2857 %
REM
REM
REM
REM compiler GCC version 4.9.2
REM options -cpp -iprefix /lustre/shared/ucl/apps/gcc/4.9.2/bin/../lib/gcc/x86_64-unknown-linux-gnu/4.9.2/ -mtune=corei7 -march=x86-64 -g -Og
REM COMMAND_LINE
REM seed 1813525886 1413116738 -281458213 1842698486 1130759755 669291015 -1705704236 278242898 444731837 -1867796702 331439662 -337654744
REM
REM S 3|1.8|5|6|7|30:31:32(qc=5)
REM O 2|1.5|12|13|15|20:21(qc=5)
REM Li 1|1.3|8|9|10|10U:20(qc=5)
REM Fe 3|2.2|2.0|1.0|8|9|10|40:41:32(qc=5)
REM 
CELL 1.54180    3.78984    8.94271    7.30604  125.25962  100.21969   97.69437
LATT -1
SFAC Li O  S  Fe 
Li     1 -0.4772410000000  0.5539120000000 -0.5504140000000 1.0   0.02
Li     1 -0.0731740000000 -0.1043260000000 -0.5504140000000 1.0   0.02
Li     1  0.6808150000000 -0.2218120000000 -0.0012590000000 1.0  -0.02
Li     1 -0.6820740000000  0.2205520000000 -0.0012590000000 1.0  -0.02
O      2  0.4067300000000  0.2746470000000  0.2951660000000 1.0   0.31
O      2 -0.1115640000000  0.0205190000000  0.2951660000000 1.0   0.31
S      3 -0.3421660000000  0.1039370000000 -0.2715560000000 1.0   0.24
S      3  0.0706100000000 -0.3754930000000 -0.2715560000000 1.0   0.24
S      3  0.5591160000000  0.5591160000000  0.1182320000000 1.0   0.28
Fe     4 -0.5450410000000  0.1108930000000  0.4159760000000 1.0   3.52
Fe     4 -0.0389830000000  0.3050820000000  0.4159760000000 1.0   3.52
Fe     4 -0.0730190000000  0.4269810000000 -0.1460380000000 1.0   3.52
END
