TITL LFSO-Li3Fe3S5O-200928-163306-29d245 -0.0381 193.658210 -5.14839239E+003 0.199992 6.77529 12 (P2) n - 1
REM
REM Run started: Mon, 28 Sep 2020 23:11:33 +0100 in /lustre/scratch/uccabz1/launch_tmp/launcher_2020-09-28-15-33-05-394938
REM CASTEP 20.1 from code version af48c487+ pr-geom-scf-spinfix Tue Jun 2 15:39:59 2020 +0100
REM Functional Perdew Burke Ernzerhof Relativity Koelling-Harmon Dispersion off
REM Cut-off 340.0000 eV Grid scale 1.7500 Gmax 16.5316 1/A FBSC none
REM MP grid 6 2 3 Offset 0.000 0.000 0.000 No. kpts 12 Spacing 0.07
REM Total runtime: 24634.5 s
REM Overall efficiency: 87.0909 %
REM
REM
REM
REM compiler GCC version 4.9.2
REM options -cpp -iprefix /lustre/shared/ucl/apps/gcc/4.9.2/bin/../lib/gcc/x86_64-unknown-linux-gnu/4.9.2/ -mtune=corei7 -march=x86-64 -g -Og
REM COMMAND_LINE
REM seed 357630849 -956688616 -1157042954 -322444392 -480013713 -1583882227 1325908982 1147730414 -810395300 -1409267133 766765232 341279285
REM
REM S 3|1.8|5|6|7|30:31:32(qc=5)
REM O 2|1.5|12|13|15|20:21(qc=5)
REM Li 1|1.3|8|9|10|10U:20(qc=5)
REM Fe 3|2.2|2.0|1.0|8|9|10|40:41:32(qc=5)
REM 
CELL 1.54180    3.12161   10.29928    6.83059   90.00000   90.00000  118.13438
LATT -1
SFAC Li O  S  Fe 
Li     1  0.2836250000000 -0.3167040000000  0.4881690000000 1.0   0.01
Li     1 -0.2836250000000  0.3167040000000  0.4881690000000 1.0   0.01
Li     1  0.0000000000000  0.0000000000000 -0.0372960000000 1.0  -0.04
O      2  0.0000000000000 -0.5000000000000  0.3621930000000 1.0  -0.29
S      3 -0.0196930000000 -0.1887440000000 -0.2577470000000 1.0  -0.01
S      3  0.0196930000000  0.1887440000000 -0.2577470000000 1.0  -0.01
S      3 -0.0923010000000 -0.2356450000000  0.1707720000000 1.0   0.03
S      3  0.0923010000000  0.2356450000000  0.1707720000000 1.0   0.03
S      3 -0.5000000000000 -0.5000000000000 -0.1349530000000 1.0  -0.08
Fe     4 -0.6908100000000 -0.2984450000000 -0.0612360000000 1.0   1.67
Fe     4  0.6908100000000  0.2984450000000 -0.0612360000000 1.0   1.67
Fe     4 -0.5000000000000  0.5000000000000  0.1914340000000 1.0  -2.80
END
