TITL LFSO-Li5FeS3O-200910-091849-6a5af1 0.1361 773.842010 -3.21035691E+003 4.99700 5.04911 10 (Fmm2) n - 1
REM
REM Run started: Thu, 10 Sep 2020 23:13:09 +0100 in /lustre/scratch/uccabz1/launch_tmp/launcher_2020-09-10-08-18-45-640596
REM CASTEP 20.1 from code version af48c487+ pr-geom-scf-spinfix Tue Jun 2 15:39:59 2020 +0100
REM Functional Perdew Burke Ernzerhof Relativity Koelling-Harmon Dispersion off
REM Cut-off 340.0000 eV Grid scale 1.7500 Gmax 16.5316 1/A FBSC none
REM MP grid 3 3 3 Offset 0.000 0.000 0.000 No. kpts 8 Spacing 0.07
REM Total runtime: 68715.9 s
REM Overall efficiency: 97.25 %
REM
REM
REM
REM compiler GCC version 4.9.2
REM options -cpp -iprefix /lustre/shared/ucl/apps/gcc/4.9.2/bin/../lib/gcc/x86_64-unknown-linux-gnu/4.9.2/ -mtune=corei7 -march=x86-64 -g -Og
REM COMMAND_LINE
REM seed -1482835636 -1452331874 -1471394278 -94763070 -1028666261 1847698303 876676130 217506056 -391859196 1145326643 -4905965 1392328793
REM
REM S 3|1.8|5|6|7|30:31:32(qc=5)
REM O 2|1.5|12|13|15|20:21(qc=5)
REM Li 1|1.3|8|9|10|10U:20(qc=5)
REM Fe 3|2.2|2.0|1.0|8|9|10|40:41:32(qc=5)
REM 
CELL 1.54180   26.76472   26.76472    5.85038   92.96002   92.96002  167.80245
LATT -1
SFAC Li O  S  Fe 
Li     1  0.3456530000000  0.4016400000000  0.2747990000000 1.0   0.02
Li     1 -0.0708550000000 -0.1268410000000  0.2747990000000 1.0   0.02
Li     1 -0.1268410000000 -0.0708550000000  0.2747990000000 1.0   0.02
Li     1  0.4016400000000  0.3456530000000  0.2747990000000 1.0   0.02
Li     1 -0.2722290000000 -0.2722290000000 -0.5444580000000 1.0  -0.04
O      2  0.1336720000000  0.1336720000000  0.2673440000000 1.0   0.31
S      3 -0.2013590000000 -0.1278100000000 -0.3291690000000 1.0   0.35
S      3 -0.1278100000000 -0.2013590000000 -0.3291690000000 1.0   0.35
S      3 -0.4891800000000 -0.4891800000000  0.0216400000000 1.0   0.23
Fe     4 -0.0491710000000 -0.0491710000000 -0.0983410000000 1.0   3.74
END
