TITL LFSO-Li4Fe2S3O-200911-021324-99514f -0.0239 345.737196 -7.75121674E+003 15.4409 15.5702 20 (P2/c) n - 1
REM
REM Run started: Fri, 11 Sep 2020 06:26:44 +0100 in /lustre/scratch/uccabz1/launch_tmp/launcher_2020-09-11-01-13-22-945500
REM CASTEP 20.1 from code version af48c487+ pr-geom-scf-spinfix Tue Jun 2 15:39:59 2020 +0100
REM Functional Perdew Burke Ernzerhof Relativity Koelling-Harmon Dispersion off
REM Cut-off 340.0000 eV Grid scale 1.7500 Gmax 16.5316 1/A FBSC none
REM MP grid 4 3 1 Offset 0.000 0.000 0.000 No. kpts 4 Spacing 0.07
REM Total runtime: 16262.4 s
REM Overall efficiency: 97.875 %
REM
REM
REM
REM compiler GCC version 4.9.2
REM options -cpp -iprefix /lustre/shared/ucl/apps/gcc/4.9.2/bin/../lib/gcc/x86_64-unknown-linux-gnu/4.9.2/ -mtune=corei7 -march=x86-64 -g -Og
REM COMMAND_LINE
REM seed -995465951 -271469909 -629295192 604653144 -1036244209 -248401162 -116531448 1722574888 867734465 1293111686 -1836077296 -1015181192
REM
REM S 3|1.8|5|6|7|30:31:32(qc=5)
REM O 2|1.5|12|13|15|20:21(qc=5)
REM Li 1|1.3|8|9|10|10U:20(qc=5)
REM Fe 3|2.2|2.0|1.0|8|9|10|40:41:32(qc=5)
REM 
CELL 1.54180    3.77592    5.99404   15.54121   79.39595   90.00000   90.00000
LATT -1
SFAC Li O  S  Fe 
Li     1  0.3845680000000  0.2361310000000 -0.4604380000000 1.0   0.01
Li     1  0.3845680000000  0.2638690000000 -0.0395620000000 1.0   0.01
Li     1 -0.3845680000000 -0.2361310000000  0.4604380000000 1.0   0.01
Li     1 -0.3845680000000 -0.2638690000000  0.0395620000000 1.0   0.01
Li     1 -0.0564040000000  0.3273800000000  0.1467450000000 1.0  -0.05
Li     1 -0.0564040000000  0.1726200000000  0.3532550000000 1.0  -0.05
Li     1  0.0564040000000 -0.3273800000000 -0.1467450000000 1.0  -0.05
Li     1  0.0564040000000 -0.1726200000000 -0.3532550000000 1.0  -0.05
O      2  0.6399700000000  0.2500000000000  0.2500000000000 1.0   0.27
O      2 -0.6399700000000 -0.2500000000000 -0.2500000000000 1.0   0.27
S      3  0.0828340000000 -0.1008080000000  0.1378150000000 1.0   0.32
S      3  0.0828340000000 -0.3991920000000  0.3621850000000 1.0   0.32
S      3 -0.0828340000000  0.1008080000000 -0.1378150000000 1.0   0.32
S      3 -0.0828340000000  0.3991920000000 -0.3621850000000 1.0   0.32
S      3  0.0000000000000 -0.5000000000000  0.0000000000000 1.0   0.04
S      3  0.0000000000000  0.0000000000000 -0.5000000000000 1.0   0.04
Fe     4  0.4244440000000  0.0428270000000 -0.2123340000000 1.0   3.42
Fe     4  0.4244440000000  0.4571730000000 -0.2876660000000 1.0   3.42
Fe     4 -0.4244440000000 -0.0428270000000  0.2123340000000 1.0   3.42
Fe     4 -0.4244440000000 -0.4571730000000  0.2876660000000 1.0   3.42
END
