TITL LFSO-Li3FeSO2-200911-145111-b4332e 0.0368 332.168385 -7.92736474E+003 8.83016 9.48046 21 (Cmm2) n - 1
REM
REM Run started: Fri, 11 Sep 2020 20:10:31 +0100 in /lustre/scratch/uccabz1/launch_tmp/launcher_2020-09-11-13-51-10-002996
REM CASTEP 20.1 from code version af48c487+ pr-geom-scf-spinfix Tue Jun 2 15:39:59 2020 +0100
REM Functional Perdew Burke Ernzerhof Relativity Koelling-Harmon Dispersion off
REM Cut-off 340.0000 eV Grid scale 1.7500 Gmax 16.5316 1/A FBSC none
REM MP grid 4 2 2 Offset 0.000 0.000 0.000 No. kpts 4 Spacing 0.07
REM Total runtime: 19251.7 s
REM Overall efficiency: 96.75 %
REM
REM
REM
REM compiler GCC version 4.9.2
REM options -cpp -iprefix /lustre/shared/ucl/apps/gcc/4.9.2/bin/../lib/gcc/x86_64-unknown-linux-gnu/4.9.2/ -mtune=corei7 -march=x86-64 -g -Og
REM COMMAND_LINE
REM seed 1965387438 -1148506602 304951179 -1914249599 1272121590 -1309932398 -249151328 483920372 1230534683 -1942172189 925913389 415374819
REM
REM S 3|1.8|5|6|7|30:31:32(qc=5)
REM O 2|1.5|12|13|15|20:21(qc=5)
REM Li 1|1.3|8|9|10|10U:20(qc=5)
REM Fe 3|2.2|2.0|1.0|8|9|10|40:41:32(qc=5)
REM 
CELL 1.54180    4.55120    9.25339    9.14422  120.39573   90.00000   90.00000
LATT -1
SFAC Li O  S  Fe 
Li     1 -0.0201560000000  0.1720600000000 -0.1789360000000 1.0  -0.00
Li     1 -0.0201560000000 -0.1720600000000  0.1789360000000 1.0  -0.00
Li     1 -0.0201560000000 -0.3509960000000 -0.1789360000000 1.0  -0.00
Li     1 -0.0201560000000  0.3509960000000  0.1789360000000 1.0  -0.00
Li     1  0.3943630000000 -0.1470740000000  0.4222110000000 1.0  -0.03
Li     1  0.3943630000000  0.1470740000000 -0.4222110000000 1.0  -0.03
Li     1  0.3943630000000  0.5692860000000  0.4222110000000 1.0  -0.03
Li     1  0.3943630000000 -0.5692860000000 -0.4222110000000 1.0  -0.03
Li     1  0.4572100000000  0.0000000000000  0.0000000000000 1.0   0.01
O      2  0.1467030000000 -0.3460140000000 -0.3632290000000 1.0   0.14
O      2  0.1467030000000  0.3460140000000  0.3632290000000 1.0   0.14
O      2  0.1467030000000 -0.0172150000000 -0.3632290000000 1.0   0.14
O      2  0.1467030000000  0.0172150000000  0.3632290000000 1.0   0.14
O      2 -0.3074650000000 -0.2767480000000  0.4465040000000 1.0   0.19
O      2 -0.3074650000000  0.2767480000000 -0.4465040000000 1.0   0.19
S      3 -0.4569700000000 -0.2478310000000  0.0000000000000 1.0   0.09
S      3 -0.4569700000000  0.2478310000000  0.0000000000000 1.0   0.09
S      3  0.0562350000000 -0.5000000000000  0.0000000000000 1.0   0.18
Fe     4 -0.0161490000000  0.2065880000000  0.4131760000000 1.0   2.26
Fe     4 -0.0161490000000 -0.2065880000000 -0.4131760000000 1.0   2.26
Fe     4 -0.4412950000000 -0.5000000000000  0.0000000000000 1.0   3.10
END
