TITL LFSO-Li3FeSO2-200911-163626-dbec7d -0.1200 528.447618 -5.28661274E+003 9.14168 9.22542 14 (Pm) n - 1
REM
REM Run started: Sat, 12 Sep 2020 01:47:46 +0100 in /lustre/scratch/uccabz1/launch_tmp/launcher_2020-09-11-15-36-24-817424
REM CASTEP 20.1 from code version af48c487+ pr-geom-scf-spinfix Tue Jun 2 15:39:59 2020 +0100
REM Functional Perdew Burke Ernzerhof Relativity Koelling-Harmon Dispersion off
REM Cut-off 340.0000 eV Grid scale 1.7500 Gmax 16.5316 1/A FBSC none
REM MP grid 5 3 1 Offset 0.000 0.000 0.000 No. kpts 8 Spacing 0.07
REM Total runtime: 38248.3 s
REM Overall efficiency: 96.8333 %
REM
REM
REM
REM compiler GCC version 4.9.2
REM options -cpp -iprefix /lustre/shared/ucl/apps/gcc/4.9.2/bin/../lib/gcc/x86_64-unknown-linux-gnu/4.9.2/ -mtune=corei7 -march=x86-64 -g -Og
REM COMMAND_LINE
REM seed -1941787922 -874907551 -206822016 -954692809 -501154428 15083768 2115749983 1918047033 -185741680 1009783406 -1549282718 96901820
REM
REM S 3|1.8|5|6|7|30:31:32(qc=5)
REM O 2|1.5|12|13|15|20:21(qc=5)
REM Li 1|1.3|8|9|10|10U:20(qc=5)
REM Fe 3|2.2|2.0|1.0|8|9|10|40:41:32(qc=5)
REM 
CELL 1.54180    3.29035    5.72944   28.03254   90.00000   90.00000   90.48618
LATT -1
SFAC Li O  S  Fe 
Li     1  0.3110290000000  0.0380440000000 -0.1572200000000 1.0   0.02
Li     1  0.3110290000000  0.0380440000000  0.1572200000000 1.0   0.02
Li     1 -0.6880640000000  0.5817930000000 -0.2920170000000 1.0   0.02
Li     1 -0.6880640000000  0.5817930000000  0.2920170000000 1.0   0.02
Li     1 -0.1416980000000  0.3826450000000  0.2207590000000 1.0   0.02
Li     1 -0.1416980000000  0.3826450000000 -0.2207590000000 1.0   0.02
O      2 -0.1773900000000 -0.3539810000000  0.2558710000000 1.0   0.35
O      2 -0.1773900000000 -0.3539810000000 -0.2558710000000 1.0   0.35
O      2 -0.1828820000000  0.0898110000000  0.1810160000000 1.0   0.23
O      2 -0.1828820000000  0.0898110000000 -0.1810160000000 1.0   0.23
S      3  0.3291010000000  0.1500190000000  0.2872040000000 1.0   0.28
S      3  0.3291010000000  0.1500190000000 -0.2872040000000 1.0   0.28
Fe     4 -0.1754390000000 -0.0415790000000  0.2442460000000 1.0   3.66
Fe     4 -0.1754390000000 -0.0415790000000 -0.2442460000000 1.0   3.66
END
