TITL LFSO-Li3Fe3S5O-201002-143800-9aa41a 0.2892 394.360041 -1.02938843E+004 0.581956E-01 0.135880 24 (P1) n - 1
REM
REM Run started: Sat, 03 Oct 2020 11:03:55 +0100 in /scratch/scratch/mmm0366/launch_tmp/launcher_2020-10-02-13-37-58-873463
REM CASTEP 19.11| from code version Version unavailable
REM Functional Perdew Burke Ernzerhof Relativity Koelling-Harmon Dispersion off
REM Cut-off 340.0000 eV Grid scale 1.7500 Gmax 16.5316 1/A FBSC none
REM MP grid 3 3 3 Offset 0.000 0.000 0.000 No. kpts 6 Spacing 0.07
REM Total runtime: 82559.1 s
REM Overall efficiency: 98.0833 %
REM
REM
REM
REM compiler GCC version 4.9.2
REM options -cpp -iprefix /scratch/UCL/applications/gcc/4.9.2/bin/../lib/gcc/x86_64-unknown-linux-gnu/4.9.2/ -mtune=corei7 -march=x86-64 -g -O2
REM COMMAND_LINE
REM seed 406235549 631220634 -1500434591 -751233071 699529815 1613365305 -1761953498 -1665124961 989631571 -1991784997 729450285 1157543835
REM
REM S 3|1.8|5|6|7|30:31:32(qc=5)
REM O 2|1.5|12|13|15|20:21(qc=5)
REM Li 1|1.3|8|9|10|10U:20(qc=5)
REM Fe 3|2.2|2.0|1.0|8|9|10|40:41:32(qc=5)
REM 
CELL 1.54180    7.53191    7.53191    8.75723  115.47005  115.47005   90.00000
LATT -1
SFAC Li O  S  Fe 
Li     1 -0.0502730000000  0.3227250000000  0.0468930000000 1.0   0.00
Li     1  0.0971660000000 -0.2758320000000  0.0468930000000 1.0   0.00
Li     1 -0.0258320000000 -0.3002730000000 -0.4531070000000 1.0   0.00
Li     1 -0.4272750000000 -0.1528340000000 -0.4531070000000 1.0   0.00
Li     1  0.2250790000000  0.2250790000000  0.4501570000000 1.0   0.00
Li     1  0.4750790000000 -0.0249210000000 -0.0498430000000 1.0   0.00
O      2 -0.2870830000000 -0.2870830000000 -0.5741650000000 1.0   0.00
O      2 -0.0370830000000 -0.5370830000000 -0.0741650000000 1.0   0.00
S      3  0.5624100000000  0.1140120000000  0.4407430000000 1.0  -0.00
S      3 -0.1216660000000  0.3267320000000  0.4407430000000 1.0  -0.00
S      3  0.5767320000000  0.3124100000000 -0.0592570000000 1.0  -0.00
S      3  0.3640120000000 -0.3716660000000 -0.0592570000000 1.0  -0.00
S      3 -0.5007630000000 -0.4557780000000 -0.3934690000000 1.0   0.00
S      3  0.1072940000000  0.0623100000000 -0.3934690000000 1.0   0.00
S      3  0.3123100000000  0.2492370000000  0.1065310000000 1.0   0.00
S      3 -0.2057780000000 -0.1427060000000  0.1065310000000 1.0   0.00
S      3  0.0458980000000  0.0458980000000  0.0917960000000 1.0  -0.00
S      3  0.2958980000000 -0.2041020000000 -0.4082040000000 1.0  -0.00
Fe     4 -0.3773090000000  0.5575580000000 -0.1162400000000 1.0  -0.01
Fe     4  0.2610690000000  0.3262020000000 -0.1162400000000 1.0  -0.01
Fe     4 -0.4237980000000  0.3726910000000  0.3837600000000 1.0  -0.01
Fe     4 -0.1924420000000  0.0110690000000  0.3837600000000 1.0  -0.01
Fe     4 -0.1632290000000  0.3367710000000 -0.3264580000000 1.0   0.03
Fe     4 -0.4132290000000 -0.4132290000000  0.1735420000000 1.0   0.03
END
