TITL LFSO-Li2Fe2SO3-200913-105511-e30cd7 -0.0481 116.253198 -3.74076505E+003 3.44731 3.61622 8 (P3) n - 1
REM
REM Run started: Sun, 13 Sep 2020 13:08:14 +0100 in /lustre/scratch/uccabz1/launch_tmp/launcher_2020-09-13-09-55-09-179015
REM CASTEP 20.1 from code version af48c487+ pr-geom-scf-spinfix Tue Jun 2 15:39:59 2020 +0100
REM Functional Perdew Burke Ernzerhof Relativity Koelling-Harmon Dispersion off
REM Cut-off 340.0000 eV Grid scale 1.7500 Gmax 16.5316 1/A FBSC none
REM MP grid 4 4 3 Offset 0.000 0.000 0.000 No. kpts 24 Spacing 0.07
REM Total runtime: 8503.73 s
REM Overall efficiency: 96.5 %
REM
REM
REM
REM compiler GCC version 4.9.2
REM options -cpp -iprefix /lustre/shared/ucl/apps/gcc/4.9.2/bin/../lib/gcc/x86_64-unknown-linux-gnu/4.9.2/ -mtune=corei7 -march=x86-64 -g -Og
REM COMMAND_LINE
REM seed -1824766701 742726691 2069593503 -2009953454 -742924321 1523632893 -157806039 749085130 -734828158 12722087 1997811411 -735731488
REM
REM S 3|1.8|5|6|7|30:31:32(qc=5)
REM O 2|1.5|12|13|15|20:21(qc=5)
REM Li 1|1.3|8|9|10|10U:20(qc=5)
REM Fe 3|2.2|2.0|1.0|8|9|10|40:41:32(qc=5)
REM 
CELL 1.54180    4.77987    4.77987    5.87547   90.00000   90.00000  120.00000
LATT -1
SFAC Li O  S  Fe 
Li     1  0.0000000000000 -0.0000000000000 -0.2752850000000 1.0  -0.02
Li     1  0.3333330000000 -0.3333330000000  0.0048740000000 1.0  -0.02
O      2 -0.3052730000000 -0.2953900000000  0.4230240000000 1.0   0.14
O      2  0.2953900000000 -0.0098830000000  0.4230240000000 1.0   0.14
O      2  0.0098830000000  0.3052730000000  0.4230240000000 1.0   0.14
S      3 -0.3333330000000  0.3333330000000 -0.0498220000000 1.0  -0.02
Fe     4  0.0000000000000 -0.0000000000000  0.2381240000000 1.0   1.67
Fe     4  0.3333330000000 -0.3333330000000 -0.5194050000000 1.0   1.43
END
