TITL LFSO-Li4Fe3S3O2-200927-092249-1144d9 0.1387 627.042907 -1.03532342E+004 18.1508 18.6439 24 (C2) n - 1
REM
REM Run started: Tue, 29 Sep 2020 11:30:58 +0100 in /lustre/scratch/uccabz1/launch_tmp/launcher_2020-09-29-08-50-22-623298
REM CASTEP 20.1 from code version af48c487+ pr-geom-scf-spinfix Tue Jun 2 15:39:59 2020 +0100
REM Functional Perdew Burke Ernzerhof Relativity Koelling-Harmon Dispersion off
REM Cut-off 340.0000 eV Grid scale 1.7500 Gmax 16.5316 1/A FBSC none
REM MP grid 4 2 2 Offset 0.000 0.000 0.000 No. kpts 6 Spacing 0.07
REM Total runtime: 120045 s
REM Overall efficiency: 98.8182 %
REM
REM
REM
REM compiler GCC version 4.9.2
REM options -cpp -iprefix /lustre/shared/ucl/apps/gcc/4.9.2/bin/../lib/gcc/x86_64-unknown-linux-gnu/4.9.2/ -mtune=corei7 -march=x86-64 -g -Og
REM COMMAND_LINE
REM seed -2102801336 -198883663 -1322160508 -670719371 -1335834224 425810233 -1647453698 -1771835030 -2021500785 1305697839 1000997387 -1568177951
REM
REM S 3|1.8|5|6|7|30:31:32(qc=5)
REM O 2|1.5|12|13|15|20:21(qc=5)
REM Li 1|1.3|8|9|10|10U:20(qc=5)
REM Fe 3|2.2|2.0|1.0|8|9|10|40:41:32(qc=5)
REM 
CELL 1.54180    3.72909   14.04806   14.04806  121.40618   91.63514   91.63514
LATT -1
SFAC Li O  S  Fe 
Li     1 -0.0972280000000 -0.1462050000000 -0.5005330000000 1.0  -0.00
Li     1  0.0972280000000  0.5005330000000  0.1462050000000 1.0  -0.00
Li     1 -0.2757800000000 -0.2363210000000 -0.1736660000000 1.0  -0.08
Li     1  0.2757800000000  0.1736660000000  0.2363210000000 1.0  -0.08
Li     1 -0.5805310000000 -0.0016530000000  0.4915700000000 1.0  -0.00
Li     1  0.5805310000000 -0.4915700000000  0.0016530000000 1.0  -0.00
Li     1 -0.1248030000000 -0.0431500000000  0.3339260000000 1.0   0.01
Li     1  0.1248030000000 -0.3339260000000  0.0431500000000 1.0   0.01
O      2 -0.0591810000000 -0.2290870000000 -0.4339740000000 1.0   0.26
O      2  0.0591810000000  0.4339740000000  0.2290870000000 1.0   0.26
O      2  0.0951690000000  0.5387150000000  0.0417500000000 1.0   0.01
O      2 -0.0951690000000 -0.0417500000000 -0.5387150000000 1.0   0.01
S      3  0.2818720000000 -0.0032350000000  0.2277470000000 1.0   0.15
S      3 -0.2818720000000 -0.2277470000000  0.0032350000000 1.0   0.15
S      3 -0.2459910000000  0.1293240000000  0.1026490000000 1.0   0.19
S      3  0.2459910000000 -0.1026490000000 -0.1293240000000 1.0   0.19
S      3 -0.2086400000000  0.3671520000000 -0.6047400000000 1.0   0.16
S      3  0.2086400000000  0.6047400000000 -0.3671520000000 1.0   0.16
Fe     4 -0.2342200000000 -0.0174590000000  0.1268990000000 1.0   2.61
Fe     4  0.2342200000000 -0.1268990000000  0.0174590000000 1.0   2.61
Fe     4  0.3017850000000  0.4151400000000  0.3342150000000 1.0   2.94
Fe     4 -0.3017850000000 -0.3342150000000 -0.4151400000000 1.0   2.94
Fe     4  0.1956670000000 -0.2129060000000 -0.3095380000000 1.0   2.83
Fe     4 -0.1956670000000  0.3095380000000  0.2129060000000 1.0   2.83
END
