TITL LFSO-Li4Fe3S2O3-200927-232312-059aeb -0.0229 175.543256 -5.31304964E+003 11.9997 12.1048 12 (R3m) n - 1
REM
REM Run started: Mon, 28 Sep 2020 01:21:23 +0100 in /scratch/scratch/uccabz1/launch_tmp/launcher_2020-09-27-22-23-09-567845
REM CASTEP 19.11| from code version Version unavailable
REM Functional Perdew Burke Ernzerhof Relativity Koelling-Harmon Dispersion off
REM Cut-off 340.0000 eV Grid scale 1.7500 Gmax 16.5316 1/A FBSC none
REM MP grid 3 3 3 Offset 0.000 0.000 0.000 No. kpts 6 Spacing 0.07
REM Total runtime: 7144.18 s
REM Overall efficiency: 95.5 %
REM
REM
REM
REM compiler GCC version 4.9.2
REM options -cpp -iprefix /scratch/UCL/applications/gcc/4.9.2/bin/../lib/gcc/x86_64-unknown-linux-gnu/4.9.2/ -mtune=corei7 -march=x86-64 -g -O2
REM COMMAND_LINE
REM seed 1295291714 -784664798 20740165 -189862722 1733118240 -1190640070 -1967423617 2143184306 1549205235 -1791327102 -15980148 -113041482
REM
REM S 3|1.8|5|6|7|30:31:32(qc=5)
REM O 2|1.5|12|13|15|20:21(qc=5)
REM Li 1|1.3|8|9|10|10U:20(qc=5)
REM Fe 3|2.2|2.0|1.0|8|9|10|40:41:32(qc=5)
REM 
CELL 1.54180    6.34000    6.34000    6.23127   59.42106   59.42106   60.00000
LATT -1
SFAC Li O  S  Fe 
Li     1  0.0383610000000 -0.5301010000000  0.4535130000000 1.0   0.01
Li     1 -0.5301010000000  0.0382270000000  0.4535130000000 1.0   0.01
Li     1  0.0382270000000  0.0383610000000  0.4535130000000 1.0   0.01
Li     1  0.3092940000000  0.3092940000000 -0.9278820000000 1.0  -0.05
O      2  0.4075230000000 -0.0628460000000  0.2480010000000 1.0   0.30
O      2 -0.0628460000000  0.4073220000000  0.2480010000000 1.0   0.30
O      2  0.4073220000000  0.4075230000000  0.2480010000000 1.0   0.30
S      3  0.0393270000000  0.0393270000000 -0.1179800000000 1.0   0.18
S      3 -0.2277850000000 -0.2277850000000 -0.3166470000000 1.0   0.32
Fe     4  0.3836910000000 -0.2229610000000  0.0623490000000 1.0   3.55
Fe     4 -0.2229610000000 -0.2230800000000  0.0623490000000 1.0   3.55
Fe     4 -0.2230800000000  0.3836910000000  0.0623490000000 1.0   3.55
END
