TITL LFSO-Li5FeSO3-200910-062543-54cde7 -0.0201 129.797357 -3.47961012E+003 3.02691 3.29542 10 (C2/m) n - 1
REM
REM Run started: Thu, 10 Sep 2020 07:30:30 +0100 in /lustre/scratch/uccabz1/launch_tmp/launcher_2020-09-10-05-25-41-708210
REM CASTEP 20.1 from code version af48c487+ pr-geom-scf-spinfix Tue Jun 2 15:39:59 2020 +0100
REM Functional Perdew Burke Ernzerhof Relativity Koelling-Harmon Dispersion off
REM Cut-off 340.0000 eV Grid scale 1.7500 Gmax 16.5316 1/A FBSC none
REM MP grid 4 3 3 Offset 0.000 0.000 0.000 No. kpts 12 Spacing 0.07
REM Total runtime: 4139.89 s
REM Overall efficiency: 91 %
REM
REM
REM
REM compiler GCC version 4.9.2
REM options -cpp -iprefix /lustre/shared/ucl/apps/gcc/4.9.2/bin/../lib/gcc/x86_64-unknown-linux-gnu/4.9.2/ -mtune=corei7 -march=x86-64 -g -Og
REM COMMAND_LINE
REM seed 800738553 2009551803 -882607738 -1559648529 -1409612785 -697963204 -1248008643 1045243198 1114735006 -996207034 -2109939333 -1918619659
REM
REM S 3|1.8|5|6|7|30:31:32(qc=5)
REM O 2|1.5|12|13|15|20:21(qc=5)
REM Li 1|1.3|8|9|10|10U:20(qc=5)
REM Fe 3|2.2|2.0|1.0|8|9|10|40:41:32(qc=5)
REM 
CELL 1.54180    4.03326    6.55684    6.55684   56.86640   66.78435   66.78435
LATT -1
SFAC Li O  S  Fe 
Li     1 -0.3791060000000  0.6448870000000  0.0564850000000 1.0   0.00
Li     1  0.3791060000000 -0.0564850000000 -0.6448870000000 1.0   0.00
Li     1  0.3791060000000 -0.6448870000000 -0.0564850000000 1.0   0.00
Li     1 -0.3791060000000  0.0564850000000  0.6448870000000 1.0   0.00
Li     1  0.0000000000000  0.5000000000000 -0.5000000000000 1.0  -0.05
O      2  1.2522850000000 -0.1754110000000 -0.1754110000000 1.0   0.17
O      2 -1.2522850000000  0.1754110000000  0.1754110000000 1.0   0.17
O      2 -0.5000000000000  0.0000000000000  0.0000000000000 1.0   0.08
S      3  0.5000000000000  0.5000000000000 -0.5000000000000 1.0  -0.01
Fe     4  0.0000000000000  0.0000000000000  0.0000000000000 1.0   2.66
END
