TITL LFSO-Li2Fe3S2O2-200921-020832-7bba57 0.0009 135.095487 -4.47311936E+003 8.79677 9.12957 9 (Imm2) n - 1
REM
REM Run started: Mon, 21 Sep 2020 04:11:20 +0100 in /lustre/scratch/uccabz1/launch_tmp/launcher_2020-09-21-02-24-56-786111
REM CASTEP 20.1 from code version af48c487+ pr-geom-scf-spinfix Tue Jun 2 15:39:59 2020 +0100
REM Functional Perdew Burke Ernzerhof Relativity Koelling-Harmon Dispersion off
REM Cut-off 340.0000 eV Grid scale 1.7500 Gmax 16.5316 1/A FBSC none
REM MP grid 4 3 4 Offset 0.000 0.000 0.000 No. kpts 24 Spacing 0.07
REM Total runtime: 5328.1 s
REM Overall efficiency: 96.125 %
REM
REM
REM
REM compiler GCC version 4.9.2
REM options -cpp -iprefix /lustre/shared/ucl/apps/gcc/4.9.2/bin/../lib/gcc/x86_64-unknown-linux-gnu/4.9.2/ -mtune=corei7 -march=x86-64 -g -Og
REM COMMAND_LINE
REM seed -1717329744 -1243172764 368010967 -1980482933 -2114809689 -1263473861 1857745442 171343524 -721501172 116564411 -1513247700 -580659690
REM
REM S 3|1.8|5|6|7|30:31:32(qc=5)
REM O 2|1.5|12|13|15|20:21(qc=5)
REM Li 1|1.3|8|9|10|10U:20(qc=5)
REM Fe 3|2.2|2.0|1.0|8|9|10|40:41:32(qc=5)
REM 
CELL 1.54180    6.11879    6.11879    6.11879   75.32617  130.69652  126.96047
LATT -1
SFAC Li O  S  Fe 
Li     1 -0.2266320000000  0.3591990000000  0.1325680000000 1.0   0.00
Li     1 -0.2266320000000 -0.3592000000000 -0.5858300000000 1.0   0.00
O      2  0.4618130000000  0.2479210000000  0.2138920000000 1.0   0.26
O      2 -0.0340300000000 -0.2479220000000  0.2138920000000 1.0   0.26
S      3  0.2549240000000  0.3238220000000 -0.4212530000000 1.0   0.10
S      3  0.2549240000000 -0.3238230000000 -0.0688970000000 1.0   0.10
Fe     4  0.1115850000000  0.2578880000000 -0.1463030000000 1.0   2.53
Fe     4 -0.4041930000000 -0.2578890000000 -0.1463030000000 1.0   2.53
Fe     4  0.4594540000000 -0.0000000000000  0.4594540000000 1.0   3.02
END
