TITL LFSO-Li3Fe3S2O4-200928-160429-0cbaf5 -0.0361 408.523105 -1.10947371E+004 -0.252981 17.4376 24 (P3) n - 1
REM
REM Run started: Wed, 30 Sep 2020 07:54:50 +0100 in /lustre/scratch/uccabz1/launch_tmp/launcher_2020-09-30-05-35-25-624737
REM CASTEP 20.1 from code version af48c487+ pr-geom-scf-spinfix Tue Jun 2 15:39:59 2020 +0100
REM Functional Perdew Burke Ernzerhof Relativity Koelling-Harmon Dispersion off
REM Cut-off 340.0000 eV Grid scale 1.7500 Gmax 16.5316 1/A FBSC none
REM MP grid 3 3 2 Offset 0.000 0.000 0.000 No. kpts 5 Spacing 0.07
REM Total runtime: 98094.4 s
REM Overall efficiency: 76.0909 %
REM
REM
REM
REM compiler GCC version 4.9.2
REM options -cpp -iprefix /scratch/UCL/applications/gcc/4.9.2/bin/../lib/gcc/x86_64-unknown-linux-gnu/4.9.2/ -mtune=corei7 -march=x86-64 -g -O2
REM COMMAND_LINE
REM seed 485206535 -384732724 -643015984 893744718 217077132 -1417549636 -1160367780 -1972758278 -1911724635 -668811852 1054564491 1973267071
REM
REM S 3|1.8|5|6|7|30:31:32(qc=5)
REM O 2|1.5|12|13|15|20:21(qc=5)
REM Li 1|1.3|8|9|10|10U:20(qc=5)
REM Fe 3|2.2|2.0|1.0|8|9|10|40:41:32(qc=5)
REM 
CELL 1.54180    6.04865    6.04865   12.89344   90.00000   90.00000  120.00000
LATT -1
SFAC Li O  S  Fe 
Li     1  0.6630910000000 -0.3015640000000  0.0467630000000 1.0   0.01
Li     1  0.3015640000000 -0.0353450000000  0.0467630000000 1.0   0.01
Li     1  0.0353450000000 -0.6630910000000  0.0467630000000 1.0   0.01
Li     1  0.3360160000000  0.1559350000000 -0.3682950000000 1.0  -0.02
Li     1 -0.1559350000000  0.1800800000000 -0.3682950000000 1.0  -0.02
Li     1 -0.1800800000000 -0.3360160000000 -0.3682950000000 1.0  -0.02
O      2 -0.0163690000000 -0.3910010000000  0.0088360000000 1.0  -0.30
O      2  0.3910010000000  0.3746320000000  0.0088360000000 1.0  -0.30
O      2 -0.3746320000000  0.0163690000000  0.0088360000000 1.0  -0.30
O      2 -0.2877060000000 -0.1415520000000  0.3359970000000 1.0   0.37
O      2  0.1415520000000 -0.1461540000000  0.3359970000000 1.0   0.37
O      2  0.1461540000000  0.2877060000000  0.3359970000000 1.0   0.37
O      2 -0.3333330000000  0.3333330000000 -0.1633760000000 1.0  -0.10
O      2  0.0000000000000  0.0000000000000 -0.0526410000000 1.0   0.01
S      3 -0.4987860000000 -0.0062290000000 -0.4872200000000 1.0  -0.11
S      3  0.0062290000000 -0.4925580000000 -0.4872200000000 1.0  -0.11
S      3  0.4925580000000  0.4987860000000 -0.4872200000000 1.0  -0.11
S      3 -0.0000000000000  0.0000000000000 -0.2514420000000 1.0  -0.00
Fe     4 -0.1490020000000  0.1551130000000  0.4042040000000 1.0   2.40
Fe     4 -0.1551130000000 -0.3041160000000  0.4042040000000 1.0   2.40
Fe     4  0.3041160000000  0.1490020000000  0.4042040000000 1.0   2.40
Fe     4  0.3251990000000  0.2321840000000 -0.1119880000000 1.0  -2.41
Fe     4 -0.2321840000000  0.0930150000000 -0.1119880000000 1.0  -2.41
Fe     4 -0.0930150000000 -0.3251990000000 -0.1119880000000 1.0  -2.41
END
