TITL LFSO-Li4Fe3S3O2-200927-112430-b5854f -0.0335 171.870352 -5.17646139E+003 11.6323 11.7574 12 (R3) n - 1
REM
REM Run started: Sun, 27 Sep 2020 12:46:57 +0100 in /lustre/scratch/uccabz1/launch_tmp/launcher_2020-09-27-10-24-28-482412
REM CASTEP 20.1 from code version af48c487+ pr-geom-scf-spinfix Tue Jun 2 15:39:59 2020 +0100
REM Functional Perdew Burke Ernzerhof Relativity Koelling-Harmon Dispersion off
REM Cut-off 340.0000 eV Grid scale 1.7500 Gmax 16.5316 1/A FBSC none
REM MP grid 3 3 3 Offset 0.000 0.000 0.000 No. kpts 6 Spacing 0.07
REM Total runtime: 4988.63 s
REM Overall efficiency: 91.25 %
REM
REM
REM
REM compiler GCC version 4.9.2
REM options -cpp -iprefix /lustre/shared/ucl/apps/gcc/4.9.2/bin/../lib/gcc/x86_64-unknown-linux-gnu/4.9.2/ -mtune=corei7 -march=x86-64 -g -Og
REM COMMAND_LINE
REM seed -1105952300 806537918 -236673938 -1100628388 -1334001932 -1756246268 834425391 1422307026 -1146258971 -2016022800 460972396 -1729334970
REM
REM S 3|1.8|5|6|7|30:31:32(qc=5)
REM O 2|1.5|12|13|15|20:21(qc=5)
REM Li 1|1.3|8|9|10|10U:20(qc=5)
REM Fe 3|2.2|2.0|1.0|8|9|10|40:41:32(qc=5)
REM 
CELL 1.54180    5.84105    5.84105    5.84105   70.66842   70.66842   70.66842
LATT -1
SFAC Li O  S  Fe 
Li     1  0.2457640000000  0.4616130000000 -0.3171690000000 1.0  -0.02
Li     1 -0.3171690000000  0.2457640000000  0.4616130000000 1.0  -0.02
Li     1  0.4616130000000 -0.3171690000000  0.2457640000000 1.0  -0.02
Li     1 -0.1186620000000 -0.1186620000000 -0.1186620000000 1.0  -0.11
O      2 -0.4101840000000 -0.4101840000000 -0.4101840000000 1.0   0.29
O      2  0.3438450000000  0.3438450000000  0.3438450000000 1.0   0.27
S      3  0.0562630000000 -0.1184830000000 -0.5407960000000 1.0   0.22
S      3 -0.5407960000000  0.0562630000000 -0.1184830000000 1.0   0.22
S      3 -0.1184830000000 -0.5407960000000  0.0562630000000 1.0   0.22
Fe     4 -0.0364300000000 -0.4443420000000  0.3767200000000 1.0   3.54
Fe     4  0.3767200000000 -0.0364300000000 -0.4443420000000 1.0   3.54
Fe     4 -0.4443420000000  0.3767200000000 -0.0364300000000 1.0   3.54
END
