TITL LFSO-Li4Fe3S4O-200926-112556-ad9ac5 -0.0037 457.592407 -1.00810191E+004 11.9421 13.5784 24 (P3) n - 1
REM
REM Run started: Sun, 27 Sep 2020 13:45:42 +0100 in /lustre/scratch/uccabz1/launch_tmp/launcher_2020-09-26-10-25-55-294697
REM CASTEP 20.1 from code version af48c487+ pr-geom-scf-spinfix Tue Jun 2 15:39:59 2020 +0100
REM Functional Perdew Burke Ernzerhof Relativity Koelling-Harmon Dispersion off
REM Cut-off 340.0000 eV Grid scale 1.7500 Gmax 16.5316 1/A FBSC none
REM MP grid 3 3 1 Offset 0.000 0.000 0.000 No. kpts 3 Spacing 0.07
REM Total runtime: 103732 s
REM Overall efficiency: 84.5455 %
REM
REM
REM
REM compiler GCC version 4.9.2
REM options -cpp -iprefix /lustre/shared/ucl/apps/gcc/4.9.2/bin/../lib/gcc/x86_64-unknown-linux-gnu/4.9.2/ -mtune=corei7 -march=x86-64 -g -Og
REM COMMAND_LINE
REM seed 1651985948 487622650 -1431546772 260465117 36485924 -71991600 174584585 1823216878 -1694733838 1806539284 1070101400 -1015337505
REM
REM S 3|1.8|5|6|7|30:31:32(qc=5)
REM O 2|1.5|12|13|15|20:21(qc=5)
REM Li 1|1.3|8|9|10|10U:20(qc=5)
REM Fe 3|2.2|2.0|1.0|8|9|10|40:41:32(qc=5)
REM 
CELL 1.54180    6.05874    6.05874   14.39408   90.00000   90.00000  120.00000
LATT -1
SFAC Li O  S  Fe 
Li     1 -0.4346210000000 -0.4711100000000 -0.3314590000000 1.0  -0.03
Li     1  0.4711100000000  0.0364900000000 -0.3314590000000 1.0  -0.03
Li     1 -0.0364900000000  0.4346210000000 -0.3314590000000 1.0  -0.03
Li     1  0.4095960000000  0.3501340000000 -0.4935380000000 1.0  -0.09
Li     1 -0.3501340000000  0.0594630000000 -0.4935380000000 1.0  -0.09
Li     1 -0.0594630000000 -0.4095960000000 -0.4935380000000 1.0  -0.09
Li     1 -0.0000000000000  0.0000000000000 -0.1192110000000 1.0  -0.01
Li     1 -0.3333330000000  0.3333330000000  0.0938720000000 1.0  -0.03
O      2  0.3333330000000 -0.3333330000000  0.3450730000000 1.0   0.11
O      2 -0.3333330000000  0.3333330000000  0.5884840000000 1.0  -0.00
S      3 -0.3269390000000 -0.1708530000000 -0.0032680000000 1.0   0.11
S      3  0.1708530000000 -0.1560860000000 -0.0032680000000 1.0   0.11
S      3  0.1560860000000  0.3269390000000 -0.0032680000000 1.0   0.11
S      3 -0.1836260000000 -0.3781540000000  0.2563030000000 1.0  -0.01
S      3  0.3781540000000  0.1945290000000  0.2563030000000 1.0  -0.01
S      3 -0.1945290000000  0.1836260000000  0.2563030000000 1.0  -0.01
S      3  0.3333330000000 -0.3333330000000 -0.2021000000000 1.0   0.02
S      3  0.3333330000000 -0.3333330000000 -0.4272920000000 1.0  -0.00
Fe     4  0.4793180000000  0.5107320000000 -0.0945440000000 1.0   1.73
Fe     4 -0.5107320000000 -0.0314140000000 -0.0945440000000 1.0   1.73
Fe     4  0.0314140000000 -0.4793180000000 -0.0945440000000 1.0   1.73
Fe     4  0.1434460000000  0.2946140000000  0.3333990000000 1.0   2.24
Fe     4 -0.2946140000000 -0.1511680000000  0.3333990000000 1.0   2.24
Fe     4  0.1511680000000 -0.1434460000000  0.3333990000000 1.0   2.24
END
