TITL LFSO-Li2Fe2SO3-200913-102253-33994d -0.0593 336.569232 -1.12303189E+004 -10.2872 20.3683 24 (C222) n - 1
REM
REM Run started: Sun, 13 Sep 2020 15:37:29 +0100 in /lustre/scratch/uccabz1/launch_tmp/launcher_2020-09-13-14-04-10-727743
REM CASTEP 20.1 from code version af48c487+ pr-geom-scf-spinfix Tue Jun 2 15:39:59 2020 +0100
REM Functional Perdew Burke Ernzerhof Relativity Koelling-Harmon Dispersion off
REM Cut-off 340.0000 eV Grid scale 1.7500 Gmax 16.5316 1/A FBSC none
REM MP grid 3 3 2 Offset 0.000 0.000 0.000 No. kpts 4 Spacing 0.07
REM Total runtime: 18171.4 s
REM Overall efficiency: 96.2222 %
REM
REM
REM
REM compiler GCC version 4.9.2
REM options -cpp -iprefix /lustre/shared/ucl/apps/gcc/4.9.2/bin/../lib/gcc/x86_64-unknown-linux-gnu/4.9.2/ -mtune=corei7 -march=x86-64 -g -Og
REM COMMAND_LINE
REM seed 127743556 569497530 -1144770073 -755227901 -268842239 1503391367 -533566229 -1882115034 1365772858 383067550 -631151491 -82433257
REM
REM S 3|1.8|5|6|7|30:31:32(qc=5)
REM O 2|1.5|12|13|15|20:21(qc=5)
REM Li 1|1.3|8|9|10|10U:20(qc=5)
REM Fe 3|2.2|2.0|1.0|8|9|10|40:41:32(qc=5)
REM 
CELL 1.54180    5.36218    5.36218   11.85671   90.00000   90.00000   80.84119
LATT -1
SFAC Li O  S  Fe 
Li     1 -0.1174040000000 -0.2915080000000 -0.3355300000000 1.0  -0.04
Li     1  0.1174040000000  0.2915080000000 -0.3355300000000 1.0  -0.04
Li     1 -0.2915080000000 -0.1174040000000  0.3355300000000 1.0  -0.04
Li     1  0.2915080000000  0.1174040000000  0.3355300000000 1.0  -0.04
Li     1  0.5000000000000 -0.5000000000000  0.3177370000000 1.0   0.06
Li     1 -0.5000000000000  0.5000000000000 -0.3177370000000 1.0   0.06
O      2 -0.2103070000000  0.2924540000000 -0.2483730000000 1.0  -0.05
O      2  0.2103070000000 -0.2924540000000 -0.2483730000000 1.0  -0.05
O      2  0.2924540000000 -0.2103070000000  0.2483730000000 1.0  -0.05
O      2 -0.2924540000000  0.2103070000000  0.2483730000000 1.0  -0.05
O      2  0.1689440000000  0.2742800000000  0.2013620000000 1.0  -0.12
O      2 -0.1689440000000 -0.2742800000000  0.2013620000000 1.0  -0.12
O      2  0.2742800000000  0.1689440000000 -0.2013620000000 1.0  -0.12
O      2 -0.2742800000000 -0.1689440000000 -0.2013620000000 1.0  -0.12
O      2  0.5000000000000 -0.5000000000000  0.0000000000000 1.0  -0.32
S      3  0.3692650000000  0.3692650000000 -0.5000000000000 1.0  -0.00
S      3 -0.3692650000000 -0.3692650000000 -0.5000000000000 1.0  -0.00
S      3  0.0000000000000  0.0000000000000  0.0000000000000 1.0  -0.07
Fe     4 -0.4383160000000  0.2368900000000 -0.1254900000000 1.0  -3.53
Fe     4  0.4383160000000 -0.2368900000000 -0.1254900000000 1.0  -3.53
Fe     4  0.2368900000000 -0.4383160000000  0.1254900000000 1.0  -3.53
Fe     4 -0.2368900000000  0.4383160000000  0.1254900000000 1.0  -3.53
Fe     4  0.0000000000000  0.0000000000000  0.2025260000000 1.0   2.45
Fe     4  0.0000000000000  0.0000000000000 -0.2025260000000 1.0   2.45
END
