TITL LFSO-Li2Fe3S3O-200912-164429-a2702d -0.0176 597.271111 -4.33626600E+003 6.24297 7.40937 9 (Pmmm) n - 1
REM
REM Run started: Sun, 13 Sep 2020 03:00:51 +0100 in /lustre/scratch/uccabz1/launch_tmp/launcher_2020-09-12-15-44-27-674469
REM CASTEP 20.1 from code version af48c487+ pr-geom-scf-spinfix Tue Jun 2 15:39:59 2020 +0100
REM Functional Perdew Burke Ernzerhof Relativity Koelling-Harmon Dispersion off
REM Cut-off 340.0000 eV Grid scale 1.7500 Gmax 16.5316 1/A FBSC none
REM MP grid 5 3 1 Offset 0.000 0.000 0.000 No. kpts 6 Spacing 0.07
REM Total runtime: 40286.8 s
REM Overall efficiency: 96.5833 %
REM
REM
REM
REM compiler GCC version 4.9.2
REM options -cpp -iprefix /lustre/shared/ucl/apps/gcc/4.9.2/bin/../lib/gcc/x86_64-unknown-linux-gnu/4.9.2/ -mtune=corei7 -march=x86-64 -g -Og
REM COMMAND_LINE
REM seed 1417109784 -431120331 717759510 -741665691 -288490459 1523881829 1114382298 724161076 1807177528 2018420694 1758498653 370634770
REM
REM S 3|1.8|5|6|7|30:31:32(qc=5)
REM O 2|1.5|12|13|15|20:21(qc=5)
REM Li 1|1.3|8|9|10|10U:20(qc=5)
REM Fe 3|2.2|2.0|1.0|8|9|10|40:41:32(qc=5)
REM 
CELL 1.54180    3.05845    6.54767   29.82516   90.00000   90.00000   90.00000
LATT -1
SFAC Li O  S  Fe 
Li     1 -0.5000000000000  0.3137730000000  0.0000000000000 1.0  -0.12
Li     1  0.5000000000000 -0.3137730000000  0.0000000000000 1.0  -0.12
O      2 -0.5000000000000 -0.5000000000000 -0.5000000000000 1.0   0.23
S      3  0.0000000000000  0.0000000000000 -0.4472920000000 1.0   0.08
S      3  0.0000000000000  0.0000000000000  0.4472920000000 1.0   0.08
S      3 -0.5000000000000  0.0000000000000  0.0000000000000 1.0   0.19
Fe     4  0.0000000000000 -0.2920310000000 -0.5000000000000 1.0   2.85
Fe     4  0.0000000000000  0.2920310000000 -0.5000000000000 1.0   2.85
Fe     4  0.5000000000000  0.0000000000000 -0.5000000000000 1.0   0.20
END
