TITL LFSO-Li4Fe3S3O2-200926-081519-05afcd 0.0463 426.830090 -1.03553414E+004 -17.9667 18.6019 24 (R3) n - 1
REM
REM Run started: Mon, 28 Sep 2020 14:45:56 +0100 in /lustre/scratch/uccabz1/launch_tmp/launcher_2020-09-28-13-13-45-743530
REM CASTEP 20.1 from code version af48c487+ pr-geom-scf-spinfix Tue Jun 2 15:39:59 2020 +0100
REM Functional Perdew Burke Ernzerhof Relativity Koelling-Harmon Dispersion off
REM Cut-off 340.0000 eV Grid scale 1.7500 Gmax 16.5316 1/A FBSC none
REM MP grid 3 3 3 Offset 0.000 0.000 0.000 No. kpts 6 Spacing 0.07
REM Total runtime: 131937 s
REM Overall efficiency: 98.7143 %
REM
REM
REM
REM compiler GCC version 4.9.2
REM options -cpp -iprefix /lustre/shared/ucl/apps/gcc/4.9.2/bin/../lib/gcc/x86_64-unknown-linux-gnu/4.9.2/ -mtune=corei7 -march=x86-64 -g -Og
REM COMMAND_LINE
REM seed -1166705093 -1701606450 582341876 2061739579 -1239761646 135282287 -1826886606 751174119 261298081 1287863268 -827213807 -1319277059
REM
REM S 3|1.8|5|6|7|30:31:32(qc=5)
REM O 2|1.5|12|13|15|20:21(qc=5)
REM Li 1|1.3|8|9|10|10U:20(qc=5)
REM Fe 3|2.2|2.0|1.0|8|9|10|40:41:32(qc=5)
REM 
CELL 1.54180    9.27023    9.27023    9.27023   49.75009   49.75009   49.75009
LATT -1
SFAC Li O  S  Fe 
Li     1 -0.1204500000000 -0.1251220000000  0.2270420000000 1.0  -0.01
Li     1  0.2270420000000 -0.1204500000000 -0.1251220000000 1.0  -0.01
Li     1 -0.1251220000000  0.2270420000000 -0.1204500000000 1.0  -0.01
Li     1  0.2372110000000 -0.2047640000000 -0.8301760000000 1.0   0.01
Li     1 -0.8301760000000  0.2372110000000 -0.2047640000000 1.0   0.01
Li     1 -0.2047640000000 -0.8301760000000  0.2372110000000 1.0   0.01
Li     1  0.1396800000000  0.1396800000000  0.1396800000000 1.0  -0.06
Li     1 -0.6594840000000 -0.6594840000000 -0.6594840000000 1.0  -0.01
O      2 -0.3819000000000  0.1279650000000  0.2365830000000 1.0  -0.23
O      2  0.2365830000000 -0.3819000000000  0.1279650000000 1.0  -0.23
O      2  0.1279650000000  0.2365830000000 -0.3819000000000 1.0  -0.23
O      2  0.0477940000000  0.0477940000000  0.0477940000000 1.0  -0.02
S      3 -0.5109680000000 -0.0714930000000  0.0643380000000 1.0  -0.19
S      3  0.0643380000000 -0.5109680000000 -0.0714930000000 1.0  -0.19
S      3 -0.0714930000000  0.0643380000000 -0.5109680000000 1.0  -0.19
S      3  0.3520900000000 -0.1218230000000  0.5381880000000 1.0  -0.09
S      3  0.5381880000000  0.3520900000000 -0.1218230000000 1.0  -0.09
S      3 -0.1218230000000  0.5381880000000  0.3520900000000 1.0  -0.09
Fe     4  0.3301480000000 -0.4268380000000 -0.2962320000000 1.0  -2.94
Fe     4 -0.2962320000000  0.3301480000000 -0.4268380000000 1.0  -2.94
Fe     4 -0.4268380000000 -0.2962320000000  0.3301480000000 1.0  -2.94
Fe     4  0.0829640000000  0.1882880000000  0.4907740000000 1.0  -2.51
Fe     4  0.4907740000000  0.0829640000000  0.1882880000000 1.0  -2.51
Fe     4  0.1882880000000  0.4907740000000  0.0829640000000 1.0  -2.51
END
