TITL LFSO-LiFeSO-200909-024918-4b1016 0.0044 385.245861 -9.02179181E+003 11.1589 11.8308 20 (P3) n - 1
REM
REM Run started: Thu, 10 Sep 2020 13:16:24 +0100 in /lustre/scratch/uccabz1/launch_tmp/launcher_2020-09-10-07-25-24-119524
REM CASTEP 20.1 from code version af48c487+ pr-geom-scf-spinfix Tue Jun 2 15:39:59 2020 +0100
REM Functional Perdew Burke Ernzerhof Relativity Koelling-Harmon Dispersion off
REM Cut-off 340.0000 eV Grid scale 1.7500 Gmax 16.5316 1/A FBSC none
REM MP grid 3 3 2 Offset 0.000 0.000 0.000 No. kpts 5 Spacing 0.07
REM Total runtime: 118102 s
REM Overall efficiency: 75.8182 %
REM
REM
REM
REM compiler GCC version 4.9.2
REM options -cpp -iprefix /lustre/shared/ucl/apps/gcc/4.9.2/bin/../lib/gcc/x86_64-unknown-linux-gnu/4.9.2/ -mtune=corei7 -march=x86-64 -g -Og
REM COMMAND_LINE
REM seed 81008104 1718198408 403749495 375452773 1277892961 -518592088 -547703055 928970921 1225539833 1961318874 541702321 -763509538
REM
REM S 3|1.8|5|6|7|30:31:32(qc=5)
REM O 2|1.5|12|13|15|20:21(qc=5)
REM Li 1|1.3|8|9|10|10U:20(qc=5)
REM Fe 3|2.2|2.0|1.0|8|9|10|40:41:32(qc=5)
REM 
CELL 1.54180    5.91821    5.91821   12.70067   90.00000   90.00000  120.00000
LATT -1
SFAC Li O  S  Fe 
Li     1 -0.2711060000000 -0.3348480000000 -0.2115750000000 1.0  -0.06
Li     1 -0.0637420000000  0.2711060000000 -0.2115750000000 1.0  -0.06
Li     1  0.3348480000000  0.0637420000000 -0.2115750000000 1.0  -0.06
Li     1 -0.3333330000000  0.3333330000000  0.2866460000000 1.0   0.04
Li     1  0.3333330000000 -0.3333330000000  0.3228110000000 1.0   0.06
O      2  0.3411920000000  0.3837300000000 -0.2160260000000 1.0   0.17
O      2  0.0425380000000 -0.3411920000000 -0.2160260000000 1.0   0.17
O      2 -0.3837300000000 -0.0425380000000 -0.2160260000000 1.0   0.17
O      2  0.3333330000000 -0.3333330000000 -0.0149220000000 1.0  -0.07
O      2 -0.0000000000000  0.0000000000000  0.2149760000000 1.0  -0.01
S      3 -0.3368750000000 -0.3221460000000  0.1914750000000 1.0   0.04
S      3  0.0147290000000  0.3368750000000  0.1914750000000 1.0   0.04
S      3  0.3221460000000 -0.0147290000000  0.1914750000000 1.0   0.04
S      3  0.3333330000000 -0.3333330000000 -0.4941200000000 1.0   0.10
S      3 -0.3333330000000  0.3333330000000 -0.4274680000000 1.0   0.10
Fe     4  0.3720540000000  0.4389800000000 -0.3628340000000 1.0   2.76
Fe     4  0.0669250000000 -0.3720540000000 -0.3628340000000 1.0   2.76
Fe     4 -0.4389800000000 -0.0669250000000 -0.3628340000000 1.0   2.76
Fe     4  0.3333330000000 -0.3333330000000  0.1207460000000 1.0   1.27
Fe     4  0.3333330000000 -0.3333330000000 -0.1475610000000 1.0   0.97
END
