TITL LFSO-Li2Fe2S3O-200913-031105-56b919 -0.0449 307.924901 -6.95314282E+003 -9.88289 10.3476 16 (R3) n - 1
REM
REM Run started: Sun, 13 Sep 2020 12:49:13 +0100 in /lustre/scratch/uccabz1/launch_tmp/launcher_2020-09-13-02-11-03-651557
REM CASTEP 20.1 from code version af48c487+ pr-geom-scf-spinfix Tue Jun 2 15:39:59 2020 +0100
REM Functional Perdew Burke Ernzerhof Relativity Koelling-Harmon Dispersion off
REM Cut-off 340.0000 eV Grid scale 1.7500 Gmax 16.5316 1/A FBSC none
REM MP grid 3 3 2 Offset 0.000 0.000 0.000 No. kpts 7 Spacing 0.07
REM Total runtime: 41020 s
REM Overall efficiency: 86.8889 %
REM
REM
REM
REM compiler GCC version 4.9.2
REM options -cpp -iprefix /lustre/shared/ucl/apps/gcc/4.9.2/bin/../lib/gcc/x86_64-unknown-linux-gnu/4.9.2/ -mtune=corei7 -march=x86-64 -g -Og
REM COMMAND_LINE
REM seed 1601133277 -540755045 113379018 1320692013 1401718400 1742093119 1715620485 -1387592010 -1084130987 -1514171184 1882198505 1507610020
REM
REM S 3|1.8|5|6|7|30:31:32(qc=5)
REM O 2|1.5|12|13|15|20:21(qc=5)
REM Li 1|1.3|8|9|10|10U:20(qc=5)
REM Fe 3|2.2|2.0|1.0|8|9|10|40:41:32(qc=5)
REM 
CELL 1.54180    6.33295    6.33295    9.58986   70.71966   70.71966   60.00000
LATT -1
SFAC Li O  S  Fe 
Li     1 -0.5296190000000 -0.0076730000000  0.2931450000000 1.0  -0.04
Li     1 -0.0076730000000  0.2441460000000  0.2931450000000 1.0  -0.04
Li     1  0.2441460000000 -0.5296190000000  0.2931450000000 1.0  -0.04
Li     1  0.3363640000000  0.3363640000000 -0.0090920000000 1.0  -0.01
O      2  0.1265230000000  0.1265230000000 -0.3795680000000 1.0  -0.16
O      2  0.2706380000000  0.2706380000000  0.1880860000000 1.0  -0.04
S      3 -0.3150910000000  0.0804130000000 -0.2178130000000 1.0  -0.01
S      3  0.0804130000000 -0.5475090000000 -0.2178130000000 1.0  -0.01
S      3 -0.5475090000000 -0.3150910000000 -0.2178130000000 1.0  -0.01
S      3  0.1896860000000 -0.2235160000000  0.4414400000000 1.0  -0.16
S      3 -0.2235160000000 -0.4076100000000  0.4414400000000 1.0  -0.16
S      3 -0.4076100000000  0.1896860000000  0.4414400000000 1.0  -0.16
Fe     4 -0.1746830000000  0.3927850000000 -0.3208020000000 1.0  -2.35
Fe     4  0.3927850000000  0.1027000000000 -0.3208020000000 1.0  -2.35
Fe     4  0.1027000000000 -0.1746830000000 -0.3208020000000 1.0  -2.35
Fe     4  0.4770010000000  0.4770010000000 -0.4310040000000 1.0  -1.98
END
