TITL LFSO-Li2Fe3S2O2-200921-014153-5cb055 0.0416 128.845458 -4.47236652E+003 -7.93236 8.22369 9 (P-1) n - 1
REM
REM Run started: Mon, 21 Sep 2020 05:55:10 +0100 in /lustre/scratch/uccabz1/launch_tmp/launcher_2020-09-21-00-41-52-221720
REM CASTEP 20.1 from code version af48c487+ pr-geom-scf-spinfix Tue Jun 2 15:39:59 2020 +0100
REM Functional Perdew Burke Ernzerhof Relativity Koelling-Harmon Dispersion off
REM Cut-off 340.0000 eV Grid scale 1.7500 Gmax 16.5316 1/A FBSC none
REM MP grid 5 5 1 Offset 0.000 0.000 0.000 No. kpts 13 Spacing 0.07
REM Total runtime: 15499.9 s
REM Overall efficiency: 95.875 %
REM
REM
REM
REM compiler GCC version 4.9.2
REM options -cpp -iprefix /lustre/shared/ucl/apps/gcc/4.9.2/bin/../lib/gcc/x86_64-unknown-linux-gnu/4.9.2/ -mtune=corei7 -march=x86-64 -g -Og
REM COMMAND_LINE
REM seed -1592963834 495280520 -1206605902 1099191112 1942604688 1503108963 997338740 676996154 -1607624012 1712800708 854401899 1916799600
REM
REM S 3|1.8|5|6|7|30:31:32(qc=5)
REM O 2|1.5|12|13|15|20:21(qc=5)
REM Li 1|1.3|8|9|10|10U:20(qc=5)
REM Fe 3|2.2|2.0|1.0|8|9|10|40:41:32(qc=5)
REM 
CELL 1.54180    3.00023    2.87606   15.26126   85.52511  101.03545   90.07206
LATT -1
SFAC Li O  S  Fe 
Li     1  0.2184950000000  0.4061640000000 -0.2708530000000 1.0   0.01
Li     1 -0.2184950000000 -0.4061640000000  0.2708530000000 1.0   0.01
O      2 -0.3018620000000 -0.0863770000000 -0.2904220000000 1.0  -0.26
O      2  0.3018620000000  0.0863770000000  0.2904220000000 1.0  -0.26
S      3 -0.4516790000000 -0.2722790000000  0.0522890000000 1.0  -0.00
S      3  0.4516790000000  0.2722790000000 -0.0522890000000 1.0  -0.00
Fe     4  0.4082450000000  0.0344170000000  0.4076180000000 1.0  -2.66
Fe     4 -0.4082450000000 -0.0344170000000 -0.4076180000000 1.0  -2.66
Fe     4  0.0000000000000 -0.5000000000000  0.5000000000000 1.0  -2.10
END
