TITL LFSO-Li4Fe2S3O2-200911-094932-0377f0 -0.2547 359.112091 -8.63006692E+003 -14.0215 14.2520 22 (P2) n - 1
REM
REM Run started: Sat, 12 Sep 2020 07:34:12 +0100 in /lustre/scratch/uccabz1/launch_tmp/launcher_2020-09-12-05-43-46-317261
REM CASTEP 20.1 from code version af48c487+ pr-geom-scf-spinfix Tue Jun 2 15:39:59 2020 +0100
REM Functional Perdew Burke Ernzerhof Relativity Koelling-Harmon Dispersion off
REM Cut-off 340.0000 eV Grid scale 1.7500 Gmax 16.5316 1/A FBSC none
REM MP grid 3 3 3 Offset 0.000 0.000 0.000 No. kpts 10 Spacing 0.07
REM Total runtime: 75423 s
REM Overall efficiency: 81.0909 %
REM
REM
REM
REM compiler GCC version 4.9.2
REM options -cpp -iprefix /lustre/shared/ucl/apps/gcc/4.9.2/bin/../lib/gcc/x86_64-unknown-linux-gnu/4.9.2/ -mtune=corei7 -march=x86-64 -g -Og
REM COMMAND_LINE
REM seed -264798248 455715194 933137415 -1128137231 1754170603 426802550 1802906642 -175057623 1392781277 1303313299 125612441 817039332
REM
REM S 3|1.8|5|6|7|30:31:32(qc=5)
REM O 2|1.5|12|13|15|20:21(qc=5)
REM Li 1|1.3|8|9|10|10U:20(qc=5)
REM Fe 3|2.2|2.0|1.0|8|9|10|40:41:32(qc=5)
REM 
CELL 1.54180    6.04297    8.75854   11.66873  144.44626   90.00000   90.00000
LATT -1
SFAC Li O  S  Fe 
Li     1  0.2963440000000 -0.2342060000000 -0.1511620000000 1.0   0.00
Li     1  0.2963440000000  0.2342060000000  0.1511620000000 1.0   0.00
Li     1  0.0754620000000 -0.2226880000000  0.0648410000000 1.0   0.01
Li     1  0.0754620000000  0.2226880000000 -0.0648410000000 1.0   0.01
Li     1  0.2318020000000 -0.2105880000000 -0.3912490000000 1.0  -0.01
Li     1  0.2318020000000  0.2105880000000  0.3912490000000 1.0  -0.01
Li     1 -0.3194740000000 -0.3801870000000 -0.3260290000000 1.0  -0.03
Li     1 -0.3194740000000  0.3801870000000  0.3260290000000 1.0  -0.03
O      2  0.4065610000000  0.4450440000000 -0.3899490000000 1.0  -0.31
O      2  0.4065610000000 -0.4450440000000  0.3899490000000 1.0  -0.31
O      2  0.3187370000000  0.0382750000000 -0.1116600000000 1.0  -0.27
O      2  0.3187370000000 -0.0382750000000  0.1116600000000 1.0  -0.27
S      3 -0.1733310000000 -0.1518190000000 -0.3605820000000 1.0  -0.23
S      3 -0.1733310000000  0.1518190000000  0.3605820000000 1.0  -0.23
S      3  0.3980390000000  0.1788900000000 -0.2866120000000 1.0  -0.13
S      3  0.3980390000000 -0.1788900000000  0.2866120000000 1.0  -0.13
S      3 -0.2155680000000  0.5599390000000 -0.1591260000000 1.0  -0.20
S      3 -0.2155680000000 -0.5599390000000  0.1591260000000 1.0  -0.20
Fe     4 -0.4352170000000 -0.2174190000000 -0.5587950000000 1.0  -2.24
Fe     4 -0.4352170000000  0.2174190000000  0.5587950000000 1.0  -2.24
Fe     4 -0.4284710000000  0.1529130000000 -0.1202490000000 1.0  -3.61
Fe     4 -0.4284710000000 -0.1529130000000  0.1202490000000 1.0  -3.61
END
