TITL LFSO-Li4Fe3SO4-200930-194446-c4b3a9 -0.0192 305.249940 -1.08924547E+004 -21.7826 22.2680 24 (C2) n - 1
REM
REM Run started: Thu, 01 Oct 2020 13:34:20 +0100 in /lustre/scratch/uccabz1/launch_tmp/launcher_2020-09-30-18-44-45-338813
REM CASTEP 20.1 from code version af48c487+ pr-geom-scf-spinfix Tue Jun 2 15:39:59 2020 +0100
REM Functional Perdew Burke Ernzerhof Relativity Koelling-Harmon Dispersion off
REM Cut-off 340.0000 eV Grid scale 1.7500 Gmax 16.5316 1/A FBSC none
REM MP grid 4 3 2 Offset 0.000 0.000 0.000 No. kpts 12 Spacing 0.07
REM Total runtime: 60076.3 s
REM Overall efficiency: 83.6667 %
REM
REM
REM
REM compiler GCC version 4.9.2
REM options -cpp -iprefix /lustre/shared/ucl/apps/gcc/4.9.2/bin/../lib/gcc/x86_64-unknown-linux-gnu/4.9.2/ -mtune=corei7 -march=x86-64 -g -Og
REM COMMAND_LINE
REM seed 1892991069 -114855820 536349268 -1246615660 -1409337229 259659605 -472056893 1312150642 1589539199 -2019062259 -1846733224 -90663396
REM
REM S 3|1.8|5|6|7|30:31:32(qc=5)
REM O 2|1.5|12|13|15|20:21(qc=5)
REM Li 1|1.3|8|9|10|10U:20(qc=5)
REM Fe 3|2.2|2.0|1.0|8|9|10|40:41:32(qc=5)
REM 
CELL 1.54180    4.89793    8.50549   10.51259  132.70116  103.47114   90.00000
LATT -1
SFAC Li O  S  Fe 
Li     1  0.0211780000000 -0.3977300000000 -0.0435500000000 1.0   0.00
Li     1  0.0647270000000  0.3977300000000  0.0435500000000 1.0   0.00
Li     1 -0.3817430000000 -0.3811210000000  0.2356200000000 1.0   0.04
Li     1  0.3826370000000  0.3811210000000 -0.2356200000000 1.0   0.04
Li     1 -0.5706390000000  0.1374750000000 -0.1431240000000 1.0   0.01
Li     1 -0.4275160000000 -0.1374750000000  0.1431240000000 1.0   0.01
Li     1  0.8390320000000 -0.1653240000000  0.6439230000000 1.0   0.07
Li     1  0.1951090000000  0.1653240000000 -0.6439230000000 1.0   0.07
O      2 -0.1927220000000  0.1557790000000  0.2999890000000 1.0  -0.25
O      2 -0.4927110000000 -0.1557790000000 -0.2999890000000 1.0  -0.25
O      2 -0.2777450000000  0.3516970000000  0.0765870000000 1.0  -0.25
O      2 -0.3543320000000 -0.3516970000000 -0.0765870000000 1.0  -0.25
O      2  0.2997730000000 -0.2709860000000  0.1827200000000 1.0  -0.27
O      2  0.1170530000000  0.2709860000000 -0.1827200000000 1.0  -0.27
O      2 -0.0484100000000 -0.1804970000000  0.4683010000000 1.0  -0.26
O      2 -0.5167110000000  0.1804970000000 -0.4683010000000 1.0  -0.26
S      3  0.0696220000000 -0.3127740000000 -0.2313750000000 1.0  -0.19
S      3  0.3009970000000  0.3127740000000  0.2313750000000 1.0  -0.19
Fe     4 -0.2067280000000  0.2782200000000  0.2032820000000 1.0  -3.02
Fe     4  0.5899900000000 -0.2782200000000 -0.2032820000000 1.0  -3.02
Fe     4  0.2255320000000 -0.3572210000000  0.4628640000000 1.0  -3.44
Fe     4 -0.2373310000000  0.3572210000000 -0.4628640000000 1.0  -3.44
Fe     4 -0.1660700000000  0.1085520000000 -0.4019840000000 1.0  -3.34
Fe     4  0.2359150000000 -0.1085520000000  0.4019840000000 1.0  -3.34
END
