TITL LFSO-Li2Fe3SO3-200912-125502-04de8e 1.9740 323.454527 -9.21367727E+003 -1.45480 3.93305 18 (Amm2) n - 1
REM
REM Run started: Mon, 14 Sep 2020 12:18:59 +0100 in /lustre/scratch/uccabz1/launch_tmp/launcher_2020-09-14-06-54-43-769700
REM CASTEP 20.1 from code version af48c487+ pr-geom-scf-spinfix Tue Jun 2 15:39:59 2020 +0100
REM Functional Perdew Burke Ernzerhof Relativity Koelling-Harmon Dispersion off
REM Cut-off 340.0000 eV Grid scale 1.7500 Gmax 16.5316 1/A FBSC none
REM MP grid 5 3 1 Offset 0.000 0.000 0.000 No. kpts 8 Spacing 0.07
REM Total runtime: 133521 s
REM Overall efficiency: 98.8 %
REM
REM
REM
REM compiler GCC version 4.9.2
REM options -cpp -iprefix /lustre/shared/ucl/apps/gcc/4.9.2/bin/../lib/gcc/x86_64-unknown-linux-gnu/4.9.2/ -mtune=corei7 -march=x86-64 -g -Og
REM COMMAND_LINE
REM seed 430738582 78635635 -1866165284 403574472 2104671098 -496817168 -1166706736 -1615554162 2056504554 392045359 -1406341996 883044208
REM
REM S 3|1.8|5|6|7|30:31:32(qc=5)
REM O 2|1.5|12|13|15|20:21(qc=5)
REM Li 1|1.3|8|9|10|10U:20(qc=5)
REM Fe 3|2.2|2.0|1.0|8|9|10|40:41:32(qc=5)
REM 
CELL 1.54180    3.39559    6.88940   14.30016   90.00000   90.00000  104.78568
LATT -1
SFAC Li O  S  Fe 
Li     1  0.5618740000000  0.4270010000000  0.1169520000000 1.0   0.01
Li     1  0.5618740000000  0.4270010000000 -0.1169520000000 1.0   0.01
Li     1 -0.1890250000000 -0.0733850000000  0.2844780000000 1.0   0.01
Li     1 -0.1890250000000 -0.0733850000000 -0.2844780000000 1.0   0.01
O      2  0.3552440000000  0.0119330000000  0.2166150000000 1.0  -0.07
O      2  0.3552440000000  0.0119330000000 -0.2166150000000 1.0  -0.07
O      2  0.1099580000000 -0.4789310000000 -0.1205920000000 1.0  -0.04
O      2  0.1099580000000 -0.4789310000000  0.1205920000000 1.0  -0.04
O      2 -0.0601320000000  0.1849660000000  0.3420750000000 1.0   0.01
O      2 -0.0601320000000  0.1849660000000 -0.3420750000000 1.0   0.01
S      3 -0.3717230000000  0.5503350000000  0.3490500000000 1.0   0.00
S      3 -0.3717230000000  0.5503350000000 -0.3490500000000 1.0   0.00
Fe     4  0.1107110000000 -0.4838150000000 -0.2575760000000 1.0  -0.09
Fe     4  0.1107110000000 -0.4838150000000  0.2575760000000 1.0  -0.09
Fe     4  0.2455690000000 -0.2179240000000 -0.1562820000000 1.0  -0.46
Fe     4  0.2455690000000 -0.2179240000000  0.1562820000000 1.0  -0.46
Fe     4  0.4652390000000  0.2328610000000 -0.3086820000000 1.0  -0.11
Fe     4  0.4652390000000  0.2328610000000  0.3086820000000 1.0  -0.11
END
