TITL LFSO-Li2Fe4S2O3-200912-125103-d0fcda 0.1353 442.226735 -1.15494787E+004 -23.2942 24.1721 22 (Cm) n - 1
REM
REM Run started: Mon, 14 Sep 2020 08:34:23 +0100 in /lustre/scratch/uccabz1/launch_tmp/launcher_2020-09-14-06-25-07-375644
REM CASTEP 20.1 from code version af48c487+ pr-geom-scf-spinfix Tue Jun 2 15:39:59 2020 +0100
REM Functional Perdew Burke Ernzerhof Relativity Koelling-Harmon Dispersion off
REM Cut-off 340.0000 eV Grid scale 1.7500 Gmax 16.5316 1/A FBSC none
REM MP grid 2 2 3 Offset 0.000 0.000 0.000 No. kpts 5 Spacing 0.07
REM Total runtime: 157921 s
REM Overall efficiency: 79.0769 %
REM
REM
REM
REM compiler GCC version 4.9.2
REM options -cpp -iprefix /lustre/shared/ucl/apps/gcc/4.9.2/bin/../lib/gcc/x86_64-unknown-linux-gnu/4.9.2/ -mtune=corei7 -march=x86-64 -g -Og
REM COMMAND_LINE
REM seed 116029490 1834440095 142981424 1860124814 -865023955 93161202 -470597491 225215566 -137808878 1315360590 1914802034 1222104587
REM
REM S 3|1.8|5|6|7|30:31:32(qc=5)
REM O 2|1.5|12|13|15|20:21(qc=5)
REM Li 1|1.3|8|9|10|10U:20(qc=5)
REM Fe 3|2.2|2.0|1.0|8|9|10|40:41:32(qc=5)
REM 
CELL 1.54180    8.15085    8.15085    7.80258   72.35562   72.35562  102.67541
LATT -1
SFAC Li O  S  Fe 
Li     1  0.1554100000000  0.4223130000000 -0.5797910000000 1.0   0.09
Li     1  0.4223130000000  0.1554100000000 -0.5797910000000 1.0   0.09
Li     1 -0.5996950000000 -0.1060250000000 -0.2420340000000 1.0   0.02
Li     1 -0.1060250000000 -0.5996950000000 -0.2420340000000 1.0   0.02
O      2  0.5229890000000 -0.1088580000000 -0.0477810000000 1.0  -0.21
O      2 -0.1088580000000  0.5229890000000 -0.0477810000000 1.0  -0.21
O      2 -0.2464470000000  0.1672650000000 -0.0200600000000 1.0  -0.19
O      2  0.1672650000000 -0.2464470000000 -0.0200600000000 1.0  -0.19
O      2  0.2330730000000 -0.0366670000000 -0.3992690000000 1.0  -0.24
O      2 -0.0366670000000  0.2330730000000 -0.3992690000000 1.0  -0.24
S      3  0.4058060000000 -0.3476920000000  0.3812740000000 1.0  -0.14
S      3 -0.3476920000000  0.4058060000000  0.3812740000000 1.0  -0.14
S      3 -0.3185750000000  0.0000720000000  0.3886870000000 1.0  -0.10
S      3  0.0000720000000 -0.3185750000000  0.3886870000000 1.0  -0.10
Fe     4  0.2295220000000 -0.1783220000000 -0.5485190000000 1.0  -2.93
Fe     4 -0.1783220000000  0.2295220000000 -0.5485190000000 1.0  -2.93
Fe     4  0.2833600000000 -0.2409860000000  0.1573150000000 1.0  -2.43
Fe     4 -0.2409860000000  0.2833600000000  0.1573150000000 1.0  -2.43
Fe     4 -0.2305970000000  0.0362350000000 -0.1948660000000 1.0  -3.21
Fe     4  0.0362350000000 -0.2305970000000 -0.1948660000000 1.0  -3.21
Fe     4 -0.0557920000000 -0.4333130000000  0.1710510000000 1.0  -2.30
Fe     4 -0.4333130000000 -0.0557920000000  0.1710510000000 1.0  -2.30
END
