TITL LFSO-Li2Fe3SO3-200912-151846-4b1ccb 0.0603 229.982191 -9.21485002E+003 18.8324 19.1112 18 (C2/m) n - 1
REM
REM Run started: Sat, 12 Sep 2020 19:01:14 +0100 in /lustre/scratch/uccabz1/launch_tmp/launcher_2020-09-12-14-18-44-248902
REM CASTEP 20.1 from code version af48c487+ pr-geom-scf-spinfix Tue Jun 2 15:39:59 2020 +0100
REM Functional Perdew Burke Ernzerhof Relativity Koelling-Harmon Dispersion off
REM Cut-off 340.0000 eV Grid scale 1.7500 Gmax 16.5316 1/A FBSC none
REM MP grid 3 3 3 Offset 0.000 0.000 0.000 No. kpts 10 Spacing 0.07
REM Total runtime: 13667.2 s
REM Overall efficiency: 80.5714 %
REM
REM
REM
REM compiler GCC version 4.9.2
REM options -cpp -iprefix /lustre/shared/ucl/apps/gcc/4.9.2/bin/../lib/gcc/x86_64-unknown-linux-gnu/4.9.2/ -mtune=corei7 -march=x86-64 -g -Og
REM COMMAND_LINE
REM seed 708412298 15792162 -805993006 229868008 -1079163658 -166679877 -1458163620 645558541 -403362589 892069506 1906120696 -112479519
REM
REM S 3|1.8|5|6|7|30:31:32(qc=5)
REM O 2|1.5|12|13|15|20:21(qc=5)
REM Li 1|1.3|8|9|10|10U:20(qc=5)
REM Fe 3|2.2|2.0|1.0|8|9|10|40:41:32(qc=5)
REM 
CELL 1.54180    5.32728    7.06216    7.06216  115.79932   98.40529   98.40529
LATT -1
SFAC Li O  S  Fe 
Li     1  0.1381330000000 -0.3178930000000  0.1095530000000 1.0  -0.03
Li     1 -0.1381330000000 -0.1095530000000  0.3178930000000 1.0  -0.03
Li     1 -0.1381330000000  0.3178930000000 -0.1095530000000 1.0  -0.03
Li     1  0.1381330000000  0.1095530000000 -0.3178930000000 1.0  -0.03
O      2 -0.2405780000000 -0.4111940000000  0.0715610000000 1.0   0.25
O      2  0.2405780000000 -0.0715610000000  0.4111940000000 1.0   0.25
O      2  0.2405780000000  0.4111940000000 -0.0715610000000 1.0   0.25
O      2 -0.2405780000000  0.0715610000000 -0.4111940000000 1.0   0.25
O      2  0.3317660000000  0.3403490000000  0.3403490000000 1.0   0.17
O      2 -0.3317660000000 -0.3403490000000 -0.3403490000000 1.0   0.17
S      3 -0.2270890000000  0.2062390000000  0.2062390000000 1.0   0.10
S      3  0.2270890000000 -0.2062390000000 -0.2062390000000 1.0   0.10
Fe     4  0.5213480000000  0.4649920000000  0.1884150000000 1.0   3.16
Fe     4 -0.5213480000000 -0.1884150000000 -0.4649920000000 1.0   3.16
Fe     4 -0.5213480000000 -0.4649920000000 -0.1884150000000 1.0   3.16
Fe     4  0.5213480000000  0.1884150000000  0.4649920000000 1.0   3.16
Fe     4  0.3198750000000  0.0933030000000  0.0933030000000 1.0   2.40
Fe     4 -0.3198750000000 -0.0933030000000 -0.0933030000000 1.0   2.40
END
