TITL LFSO-Li3Fe3S4O2-200929-200648-d12866 0.0342 414.649390 -1.05632517E+004 -11.8058 12.8608 24 (R3) n - 1
REM
REM Run started: Wed, 30 Sep 2020 17:38:27 +0100 in /lustre/scratch/uccabz1/launch_tmp/launcher_2020-09-29-19-06-46-041133
REM CASTEP 20.1 from code version af48c487+ pr-geom-scf-spinfix Tue Jun 2 15:39:59 2020 +0100
REM Functional Perdew Burke Ernzerhof Relativity Koelling-Harmon Dispersion off
REM Cut-off 340.0000 eV Grid scale 1.7500 Gmax 16.5316 1/A FBSC none
REM MP grid 3 3 3 Offset 0.000 0.000 0.000 No. kpts 6 Spacing 0.07
REM Total runtime: 84734.8 s
REM Overall efficiency: 98.3333 %
REM
REM
REM
REM compiler GCC version 4.9.2
REM options -cpp -iprefix /lustre/shared/ucl/apps/gcc/4.9.2/bin/../lib/gcc/x86_64-unknown-linux-gnu/4.9.2/ -mtune=corei7 -march=x86-64 -g -Og
REM COMMAND_LINE
REM seed 264887459 1396690417 -130364934 487509142 -1474958064 37435660 1176656130 -224813210 780506147 -1883143155 1855220359 1674074034
REM
REM S 3|1.8|5|6|7|30:31:32(qc=5)
REM O 2|1.5|12|13|15|20:21(qc=5)
REM Li 1|1.3|8|9|10|10U:20(qc=5)
REM Fe 3|2.2|2.0|1.0|8|9|10|40:41:32(qc=5)
REM 
CELL 1.54180    8.69059    8.69059    8.69059   55.41072   55.41072   55.41072
LATT -1
SFAC Li O  S  Fe 
Li     1 -0.4739910000000  0.1671190000000  0.1281050000000 1.0  -0.02
Li     1  0.1281050000000 -0.4739910000000  0.1671190000000 1.0  -0.02
Li     1  0.1671190000000  0.1281050000000 -0.4739910000000 1.0  -0.02
Li     1 -0.4367040000000  0.2646960000000 -0.3181820000000 1.0  -0.02
Li     1 -0.3181820000000 -0.4367040000000  0.2646960000000 1.0  -0.02
Li     1  0.2646960000000 -0.3181820000000 -0.4367040000000 1.0  -0.02
O      2  0.0690550000000  0.3658750000000 -0.4457170000000 1.0  -0.23
O      2 -0.4457170000000  0.0690550000000  0.3658750000000 1.0  -0.23
O      2  0.3658750000000 -0.4457170000000  0.0690550000000 1.0  -0.23
O      2 -0.3593020000000 -0.3593020000000 -0.3593020000000 1.0  -0.08
S      3 -0.1646460000000  0.3005430000000 -0.0078280000000 1.0  -0.04
S      3 -0.0078280000000 -0.1646460000000  0.3005430000000 1.0  -0.04
S      3  0.3005430000000 -0.0078280000000 -0.1646460000000 1.0  -0.04
S      3  0.2215290000000  0.4172940000000 -0.1163270000000 1.0  -0.17
S      3 -0.1163270000000  0.2215290000000  0.4172940000000 1.0  -0.17
S      3  0.4172940000000 -0.1163270000000  0.2215290000000 1.0  -0.17
S      3 -0.2261860000000 -0.2261860000000 -0.2261860000000 1.0  -0.03
S      3  0.4262390000000  0.4262390000000  0.4262390000000 1.0   0.09
Fe     4 -0.1009340000000 -0.3927110000000 -0.4154900000000 1.0  -1.37
Fe     4 -0.4154900000000 -0.1009340000000 -0.3927110000000 1.0  -1.37
Fe     4 -0.3927110000000 -0.4154900000000 -0.1009340000000 1.0  -1.37
Fe     4 -0.2702180000000  0.1538230000000 -0.6649580000000 1.0  -2.09
Fe     4 -0.6649580000000 -0.2702180000000  0.1538230000000 1.0  -2.09
Fe     4  0.1538230000000 -0.6649580000000 -0.2702180000000 1.0  -2.09
END
