TITL LFSO-Li2Fe4S2O3-200912-081126-16aa22 -0.0294 163.440480 -5.77518514E+003 -9.57276 9.81270 11 (Cm) n - 1
REM
REM Run started: Sat, 12 Sep 2020 15:31:25 +0100 in /lustre/scratch/uccabz1/launch_tmp/launcher_2020-09-12-08-10-43-740409
REM CASTEP 20.1 from code version af48c487+ pr-geom-scf-spinfix Tue Jun 2 15:39:59 2020 +0100
REM Functional Perdew Burke Ernzerhof Relativity Koelling-Harmon Dispersion off
REM Cut-off 340.0000 eV Grid scale 1.7500 Gmax 16.5316 1/A FBSC none
REM MP grid 3 3 3 Offset 0.000 0.000 0.000 No. kpts 10 Spacing 0.07
REM Total runtime: 24568 s
REM Overall efficiency: 76.3333 %
REM
REM
REM
REM compiler GCC version 4.9.2
REM options -cpp -iprefix /lustre/shared/ucl/apps/gcc/4.9.2/bin/../lib/gcc/x86_64-unknown-linux-gnu/4.9.2/ -mtune=corei7 -march=x86-64 -g -Og
REM COMMAND_LINE
REM seed 1422468693 1064793588 -1856575460 -1441844669 -1866794684 -446249084 784485690 273990510 -687930854 -25505691 1476684535 982531989
REM
REM S 3|1.8|5|6|7|30:31:32(qc=5)
REM O 2|1.5|12|13|15|20:21(qc=5)
REM Li 1|1.3|8|9|10|10U:20(qc=5)
REM Fe 3|2.2|2.0|1.0|8|9|10|40:41:32(qc=5)
REM 
CELL 1.54180    5.41261    5.41261    5.62002   88.74424   88.74424   96.67673
LATT -1
SFAC Li O  S  Fe 
Li     1  0.1165070000000  0.4514770000000  0.1438770000000 1.0   0.05
Li     1  0.4514770000000  0.1165070000000  0.1438770000000 1.0   0.05
O      2  0.3508180000000 -0.2491820000000  0.1102360000000 1.0  -0.28
O      2 -0.2491820000000  0.3508180000000  0.1102360000000 1.0  -0.28
O      2  0.1619930000000  0.1619930000000 -0.0382270000000 1.0  -0.21
S      3  0.0453420000000 -0.4207450000000 -0.4007120000000 1.0  -0.04
S      3 -0.4207450000000  0.0453420000000 -0.4007120000000 1.0  -0.04
Fe     4  0.4094050000000 -0.2884190000000  0.4212480000000 1.0  -2.14
Fe     4 -0.2884190000000  0.4094050000000  0.4212480000000 1.0  -2.14
Fe     4  0.2367900000000 -0.1184570000000 -0.1864400000000 1.0  -2.26
Fe     4 -0.1184570000000  0.2367900000000 -0.1864400000000 1.0  -2.26
END
