TITL LFSO-Li3Fe3S5O-200928-164747-a477a8 0.0838 501.810307 -1.02921597E+004 -17.1383 17.9147 24 (P3) n - 1
REM
REM Run started: Tue, 29 Sep 2020 18:20:12 +0100 in /lustre/scratch/uccabz1/launch_tmp/launcher_2020-09-28-15-47-45-570455
REM CASTEP 20.1 from code version af48c487+ pr-geom-scf-spinfix Tue Jun 2 15:39:59 2020 +0100
REM Functional Perdew Burke Ernzerhof Relativity Koelling-Harmon Dispersion off
REM Cut-off 340.0000 eV Grid scale 1.7500 Gmax 16.5316 1/A FBSC none
REM MP grid 2 2 2 Offset 0.000 0.000 0.000 No. kpts 4 Spacing 0.07
REM Total runtime: 104221 s
REM Overall efficiency: 90.0833 %
REM
REM
REM
REM compiler GCC version 4.9.2
REM options -cpp -iprefix /lustre/shared/ucl/apps/gcc/4.9.2/bin/../lib/gcc/x86_64-unknown-linux-gnu/4.9.2/ -mtune=corei7 -march=x86-64 -g -Og
REM COMMAND_LINE
REM seed -981874492 1438361161 -1756026516 -1017508538 771073371 2131472535 1557658138 1567914241 -1247038017 -2089223762 549890361 647147914
REM
REM S 3|1.8|5|6|7|30:31:32(qc=5)
REM O 2|1.5|12|13|15|20:21(qc=5)
REM Li 1|1.3|8|9|10|10U:20(qc=5)
REM Fe 3|2.2|2.0|1.0|8|9|10|40:41:32(qc=5)
REM 
CELL 1.54180    8.67384    8.67384    7.70169   90.00000   90.00000  120.00000
LATT -1
SFAC Li O  S  Fe 
Li     1 -0.1082800000000  0.1299040000000  0.4118620000000 1.0  -0.01
Li     1  0.2381840000000  0.1082800000000  0.4118620000000 1.0  -0.01
Li     1 -0.1299040000000 -0.2381840000000  0.4118620000000 1.0  -0.01
Li     1 -0.4813280000000 -0.1677930000000  0.2123570000000 1.0  -0.03
Li     1  0.3135360000000  0.4813280000000  0.2123570000000 1.0  -0.03
Li     1  0.1677930000000 -0.3135360000000  0.2123570000000 1.0  -0.03
O      2 -0.3333330000000  0.3333330000000  0.4515890000000 1.0  -0.10
O      2  0.3333330000000 -0.3333330000000  0.0541860000000 1.0   0.02
S      3 -0.4393780000000 -0.3452750000000  0.4410050000000 1.0  -0.11
S      3  0.0941030000000  0.4393780000000  0.4410050000000 1.0  -0.11
S      3  0.3452750000000 -0.0941030000000  0.4410050000000 1.0  -0.11
S      3  0.3790380000000  0.2514890000000  0.1526420000000 1.0  -0.30
S      3 -0.1275490000000 -0.3790380000000  0.1526420000000 1.0  -0.30
S      3 -0.2514890000000  0.1275490000000  0.1526420000000 1.0  -0.30
S      3 -0.1634380000000  0.0860030000000 -0.2836270000000 1.0  -0.06
S      3  0.2494410000000  0.1634380000000 -0.2836270000000 1.0  -0.06
S      3 -0.0860030000000 -0.2494410000000 -0.2836270000000 1.0  -0.06
S      3  0.3333330000000 -0.3333330000000 -0.1629300000000 1.0   0.09
Fe     4  0.1068220000000  0.3084550000000 -0.2951810000000 1.0  -2.70
Fe     4  0.2016320000000 -0.1068220000000 -0.2951810000000 1.0  -2.70
Fe     4 -0.3084550000000 -0.2016320000000 -0.2951810000000 1.0  -2.70
Fe     4 -0.3853860000000 -0.5349330000000  0.2948990000000 1.0  -2.52
Fe     4 -0.1495470000000  0.3853860000000  0.2948990000000 1.0  -2.52
Fe     4  0.5349330000000  0.1495470000000  0.2948990000000 1.0  -2.52
END
