TITL LFSO-Li2Fe4SO4-200911-235544-e6adfc 0.1884 148.346614 -5.90724903E+003 11.6141 11.8834 11 (Pm) n - 1
REM
REM Run started: Sat, 12 Sep 2020 06:18:57 +0100 in /lustre/scratch/uccabz1/launch_tmp/launcher_2020-09-11-22-55-42-837160
REM CASTEP 20.1 from code version af48c487+ pr-geom-scf-spinfix Tue Jun 2 15:39:59 2020 +0100
REM Functional Perdew Burke Ernzerhof Relativity Koelling-Harmon Dispersion off
REM Cut-off 340.0000 eV Grid scale 1.7500 Gmax 16.5316 1/A FBSC none
REM MP grid 5 3 2 Offset 0.000 0.000 0.000 No. kpts 8 Spacing 0.07
REM Total runtime: 25208.7 s
REM Overall efficiency: 96.5 %
REM
REM
REM
REM compiler GCC version 4.9.2
REM options -cpp -iprefix /lustre/shared/ucl/apps/gcc/4.9.2/bin/../lib/gcc/x86_64-unknown-linux-gnu/4.9.2/ -mtune=corei7 -march=x86-64 -g -Og
REM COMMAND_LINE
REM seed 1175682486 -1237733228 1919291360 -1009226733 -1471549770 1389646715 -193181553 -1461728822 952578238 -598924777 -414411847 1417147647
REM
REM S 3|1.8|5|6|7|30:31:32(qc=5)
REM O 2|1.5|12|13|15|20:21(qc=5)
REM Li 1|1.3|8|9|10|10U:20(qc=5)
REM Fe 3|2.2|2.0|1.0|8|9|10|40:41:32(qc=5)
REM 
CELL 1.54180    2.92998    5.00001   10.12610   90.00000   90.00000   90.01056
LATT -1
SFAC Li O  S  Fe 
Li     1  0.0265890000000 -0.0393770000000 -0.3743030000000 1.0  -0.09
Li     1  0.0265890000000 -0.0393770000000  0.3743030000000 1.0  -0.09
O      2 -0.0126070000000  0.2603880000000  0.2471810000000 1.0   0.16
O      2 -0.0126070000000  0.2603880000000 -0.2471810000000 1.0   0.16
O      2 -0.0112980000000 -0.2085990000000  0.1771610000000 1.0   0.20
O      2 -0.0112980000000 -0.2085990000000 -0.1771610000000 1.0   0.20
S      3 -0.4764040000000 -0.3354510000000  0.5000000000000 1.0   0.05
Fe     4  0.4804470000000  0.0397770000000  0.1818790000000 1.0   2.13
Fe     4  0.4804470000000  0.0397770000000 -0.1818790000000 1.0   2.13
Fe     4 -0.5009640000000 -0.4455600000000  0.2688210000000 1.0   3.38
Fe     4 -0.5009640000000 -0.4455600000000 -0.2688210000000 1.0   3.38
END
