TITL LFSO-Li4Fe2S3O-200911-005932-171598 -0.0234 486.304048 -7.74780870E+003 10.0087 10.7470 20 (Cm) n - 1
REM
REM Run started: Fri, 11 Sep 2020 20:19:27 +0100 in /lustre/scratch/uccabz1/launch_tmp/launcher_2020-09-10-23-59-30-378408
REM CASTEP 20.1 from code version af48c487+ pr-geom-scf-spinfix Tue Jun 2 15:39:59 2020 +0100
REM Functional Perdew Burke Ernzerhof Relativity Koelling-Harmon Dispersion off
REM Cut-off 340.0000 eV Grid scale 1.7500 Gmax 16.5316 1/A FBSC none
REM MP grid 3 3 2 Offset 0.000 0.000 0.000 No. kpts 6 Spacing 0.07
REM Total runtime: 87952.5 s
REM Overall efficiency: 94.5833 %
REM
REM
REM
REM compiler GCC version 4.9.2
REM options -cpp -iprefix /lustre/shared/ucl/apps/gcc/4.9.2/bin/../lib/gcc/x86_64-unknown-linux-gnu/4.9.2/ -mtune=corei7 -march=x86-64 -g -Og
REM COMMAND_LINE
REM seed -149943373 959064386 1455705030 310423555 694811702 -2026325879 1826134172 1985286163 -1287186632 277922606 1085916111 811882731
REM
REM S 3|1.8|5|6|7|30:31:32(qc=5)
REM O 2|1.5|12|13|15|20:21(qc=5)
REM Li 1|1.3|8|9|10|10U:20(qc=5)
REM Fe 3|2.2|2.0|1.0|8|9|10|40:41:32(qc=5)
REM 
CELL 1.54180    6.07344    6.07344   13.71986   79.03773   79.03773   92.22088
LATT -1
SFAC Li O  S  Fe 
Li     1 -0.1367870000000  0.5135510000000  0.2317840000000 1.0  -0.08
Li     1  0.5135510000000 -0.1367870000000  0.2317840000000 1.0  -0.08
Li     1  0.0288700000000 -0.4233000000000 -0.4021730000000 1.0   0.01
Li     1 -0.4233000000000  0.0288700000000 -0.4021730000000 1.0   0.01
Li     1  0.3261570000000 -0.1067180000000  0.4637540000000 1.0  -0.02
Li     1 -0.1067180000000  0.3261570000000  0.4637540000000 1.0  -0.02
Li     1  0.2055880000000 -0.2046550000000 -0.1725500000000 1.0   0.04
Li     1 -0.2046550000000  0.2055880000000 -0.1725500000000 1.0   0.04
O      2  0.6380490000000  0.0617640000000  0.4608470000000 1.0   0.08
O      2  0.0617640000000  0.6380490000000  0.4608470000000 1.0   0.08
S      3  0.0012120000000 -0.5509030000000 -0.1067170000000 1.0   0.26
S      3 -0.5509030000000  0.0012120000000 -0.1067170000000 1.0   0.26
S      3  0.1624950000000 -0.0819830000000 -0.3516850000000 1.0   0.01
S      3 -0.0819830000000  0.1624950000000 -0.3516850000000 1.0   0.01
S      3 -0.2412670000000  0.1797850000000  0.1928890000000 1.0   0.01
S      3  0.1797850000000 -0.2412670000000  0.1928890000000 1.0   0.01
Fe     4 -0.0221280000000  0.2465790000000  0.0389890000000 1.0   3.13
Fe     4  0.2465790000000 -0.0221280000000  0.0389890000000 1.0   3.13
Fe     4  0.0149140000000  0.7794800000000  0.3443020000000 1.0   1.57
Fe     4  0.7794800000000  0.0149140000000  0.3443020000000 1.0   1.57
END
