TITL LFSO-Li3FeS2O-200911-195011-d64a38 -0.0310 181.049269 -5.01947797E+003 6.96353 7.13926 14 (Cc) n - 1
REM
REM Run started: Sat, 12 Sep 2020 00:04:27 +0100 in /lustre/scratch/uccabz1/launch_tmp/launcher_2020-09-11-18-50-09-366392
REM CASTEP 20.1 from code version af48c487+ pr-geom-scf-spinfix Tue Jun 2 15:39:59 2020 +0100
REM Functional Perdew Burke Ernzerhof Relativity Koelling-Harmon Dispersion off
REM Cut-off 340.0000 eV Grid scale 1.7500 Gmax 16.5316 1/A FBSC none
REM MP grid 4 4 2 Offset 0.000 0.000 0.000 No. kpts 10 Spacing 0.07
REM Total runtime: 15304.3 s
REM Overall efficiency: 75.2308 %
REM
REM
REM
REM compiler GCC version 4.9.2
REM options -cpp -iprefix /lustre/shared/ucl/apps/gcc/4.9.2/bin/../lib/gcc/x86_64-unknown-linux-gnu/4.9.2/ -mtune=corei7 -march=x86-64 -g -Og
REM COMMAND_LINE
REM seed -120967999 896535660 438387039 1427999239 1034686823 -567822893 996687007 657977582 1151813289 -698763024 -2039457733 1259782062
REM
REM S 3|1.8|5|6|7|30:31:32(qc=5)
REM O 2|1.5|12|13|15|20:21(qc=5)
REM Li 1|1.3|8|9|10|10U:20(qc=5)
REM Fe 3|2.2|2.0|1.0|8|9|10|40:41:32(qc=5)
REM 
CELL 1.54180    3.84947    3.84947   12.21909   89.45075   89.45075   90.21769
LATT -1
SFAC Li O  S  Fe 
Li     1  0.3512420000000  0.3617380000000 -0.1727740000000 1.0  -0.00
Li     1  0.3617380000000  0.3512420000000  0.3272260000000 1.0  -0.00
Li     1 -0.1543560000000 -0.5991600000000 -0.3231120000000 1.0  -0.03
Li     1 -0.5991600000000 -0.1543560000000  0.1768880000000 1.0  -0.03
Li     1 -0.1316300000000 -0.1656890000000  0.3347140000000 1.0   0.02
Li     1 -0.1656890000000 -0.1316300000000 -0.1652860000000 1.0   0.02
O      2 -0.1547070000000  0.3652420000000 -0.1472730000000 1.0   0.18
O      2  0.3652420000000 -0.1547070000000  0.3527270000000 1.0   0.18
S      3 -0.1410840000000  0.2927570000000 -0.5122210000000 1.0   0.11
S      3  0.2927570000000 -0.1410840000000 -0.0122210000000 1.0   0.11
S      3  0.3503680000000 -0.1336590000000 -0.3153700000000 1.0   0.09
S      3 -0.1336590000000  0.3503680000000  0.1846300000000 1.0   0.09
Fe     4 -0.0663440000000 -0.6438870000000  0.0010320000000 1.0   3.11
Fe     4 -0.6438870000000 -0.0663440000000  0.5010320000000 1.0   3.11
END
