TITL LFSO-Li2Fe4S2O3-200912-082042-45a444 -0.0530 157.124220 -5.77259893E+003 5.48426 6.45401 11 (C2) n - 1
REM
REM Run started: Sat, 12 Sep 2020 13:49:24 +0100 in /lustre/scratch/uccabz1/launch_tmp/launcher_2020-09-12-07-20-40-550544
REM CASTEP 20.1 from code version af48c487+ pr-geom-scf-spinfix Tue Jun 2 15:39:59 2020 +0100
REM Functional Perdew Burke Ernzerhof Relativity Koelling-Harmon Dispersion off
REM Cut-off 340.0000 eV Grid scale 1.7500 Gmax 16.5316 1/A FBSC none
REM MP grid 4 3 2 Offset 0.000 0.000 0.000 No. kpts 10 Spacing 0.07
REM Total runtime: 19772.5 s
REM Overall efficiency: 90.3 %
REM
REM
REM
REM compiler GCC version 4.9.2
REM options -cpp -iprefix /lustre/shared/ucl/apps/gcc/4.9.2/bin/../lib/gcc/x86_64-unknown-linux-gnu/4.9.2/ -mtune=corei7 -march=x86-64 -g -Og
REM COMMAND_LINE
REM seed 2137087597 1055919153 553760903 -1244304766 367466271 1357114429 -1228146822 -1244077703 -372662651 -498411387 -929174560 1516030491
REM
REM S 3|1.8|5|6|7|30:31:32(qc=5)
REM O 2|1.5|12|13|15|20:21(qc=5)
REM Li 1|1.3|8|9|10|10U:20(qc=5)
REM Fe 3|2.2|2.0|1.0|8|9|10|40:41:32(qc=5)
REM 
CELL 1.54180    3.81190    5.58080    7.89710   69.30797   89.55973   88.75388
LATT -1
SFAC Li O  S  Fe 
Li     1  0.2486830000000  0.3840780000000 -0.2821380000000 1.0  -0.04
Li     1 -0.2486830000000 -0.1019400000000 -0.2821380000000 1.0  -0.04
O      2  0.2631790000000  0.3025970000000 -0.0419740000000 1.0  -0.06
O      2 -0.2631790000000 -0.2606230000000 -0.0419740000000 1.0  -0.06
O      2 -0.0000000000000  0.1924960000000  0.6150080000000 1.0   0.09
S      3  0.2459060000000  0.1361730000000  0.1587520000000 1.0  -0.10
S      3 -0.2459060000000 -0.2949250000000  0.1587520000000 1.0  -0.10
Fe     4  0.2553770000000  0.1644840000000  0.4216950000000 1.0   2.11
Fe     4 -0.2553770000000  0.4138210000000  0.4216950000000 1.0   2.11
Fe     4  0.2526050000000 -0.2873540000000  0.2927310000000 1.0   0.79
Fe     4 -0.2526050000000 -0.0053770000000  0.2927310000000 1.0   0.79
END
