TITL LFSO-Li2Fe4S3O2-200912-042318-3a4cf5 0.0586 371.412871 -1.12799308E+004 0.526290 17.4361 22 (Pma2) n - 1
REM
REM Run started: Sun, 13 Sep 2020 09:52:48 +0100 in /lustre/scratch/uccabz1/launch_tmp/launcher_2020-09-12-03-23-16-588022
REM CASTEP 20.1 from code version af48c487+ pr-geom-scf-spinfix Tue Jun 2 15:39:59 2020 +0100
REM Functional Perdew Burke Ernzerhof Relativity Koelling-Harmon Dispersion off
REM Cut-off 340.0000 eV Grid scale 1.7500 Gmax 16.5316 1/A FBSC none
REM MP grid 4 3 2 Offset 0.000 0.000 0.000 No. kpts 6 Spacing 0.07
REM Total runtime: 106600 s
REM Overall efficiency: 98.5556 %
REM
REM
REM
REM compiler GCC version 4.9.2
REM options -cpp -iprefix /lustre/shared/ucl/apps/gcc/4.9.2/bin/../lib/gcc/x86_64-unknown-linux-gnu/4.9.2/ -mtune=corei7 -march=x86-64 -g -Og
REM COMMAND_LINE
REM seed -963966879 1537747640 -584796999 1587878328 -1060564140 -402976619 -1180308947 -159413338 -270702383 -1373084791 -1556662605 -1640526757
REM
REM S 3|1.8|5|6|7|30:31:32(qc=5)
REM O 2|1.5|12|13|15|20:21(qc=5)
REM Li 1|1.3|8|9|10|10U:20(qc=5)
REM Fe 3|2.2|2.0|1.0|8|9|10|40:41:32(qc=5)
REM 
CELL 1.54180    4.07113    6.62513   13.77043   90.00000   90.00000   90.02178
LATT -1
SFAC Li O  S  Fe 
Li     1  0.2506280000000  0.3770750000000  0.3899100000000 1.0  -0.04
Li     1 -0.2506280000000 -0.3770750000000  0.3899100000000 1.0  -0.04
Li     1 -0.2501020000000 -0.1247830000000 -0.2731410000000 1.0   0.02
Li     1  0.2501020000000  0.1247830000000 -0.2731410000000 1.0   0.02
O      2 -0.2501900000000 -0.2012000000000  0.1432370000000 1.0   0.04
O      2  0.2501900000000  0.2012000000000  0.1432370000000 1.0   0.04
O      2 -0.2498360000000  0.1750730000000 -0.2587340000000 1.0  -0.38
O      2  0.2498360000000 -0.1750730000000 -0.2587340000000 1.0  -0.38
S      3 -0.2496520000000  0.2703690000000  0.2929130000000 1.0   0.04
S      3  0.2496520000000 -0.2703690000000  0.2929130000000 1.0   0.04
S      3 -0.2500930000000 -0.3220640000000 -0.1059690000000 1.0  -0.03
S      3  0.2500930000000  0.3220640000000 -0.1059690000000 1.0  -0.03
S      3 -0.2503680000000 -0.1891750000000 -0.4757900000000 1.0  -0.02
S      3  0.2503680000000  0.1891750000000 -0.4757900000000 1.0  -0.02
Fe     4  0.2499150000000 -0.1001750000000  0.4393910000000 1.0   2.20
Fe     4 -0.2499150000000  0.1001750000000  0.4393910000000 1.0   2.20
Fe     4 -0.2498390000000  0.3527950000000 -0.1663240000000 1.0  -2.55
Fe     4  0.2498390000000 -0.3527950000000 -0.1663240000000 1.0  -2.55
Fe     4  0.2499570000000  0.4339760000000  0.1993510000000 1.0  -1.06
Fe     4 -0.2499570000000 -0.4339760000000  0.1993510000000 1.0  -1.06
Fe     4 -0.2501720000000 -0.0969310000000  0.2649670000000 1.0   2.05
Fe     4  0.2501720000000  0.0969310000000  0.2649670000000 1.0   2.05
END
