TITL LFSO-Li3Fe3S5O-201002-133100-233645 -0.0276 200.771251 -5.14418844E+003 0.371427E-01 0.419022E-01 12 (R3) n - 1
REM
REM Run started: Fri, 02 Oct 2020 15:51:00 +0100 in /lustre/scratch/uccabz1/launch_tmp/launcher_2020-10-02-12-30-59-387126
REM CASTEP 20.1 from code version af48c487+ pr-geom-scf-spinfix Tue Jun 2 15:39:59 2020 +0100
REM Functional Perdew Burke Ernzerhof Relativity Koelling-Harmon Dispersion off
REM Cut-off 340.0000 eV Grid scale 1.7500 Gmax 16.5316 1/A FBSC none
REM MP grid 3 3 3 Offset 0.000 0.000 0.000 No. kpts 6 Spacing 0.07
REM Total runtime: 8429.91 s
REM Overall efficiency: 90.3636 %
REM
REM
REM
REM compiler GCC version 4.9.2
REM options -cpp -iprefix /lustre/shared/ucl/apps/gcc/4.9.2/bin/../lib/gcc/x86_64-unknown-linux-gnu/4.9.2/ -mtune=corei7 -march=x86-64 -g -Og
REM COMMAND_LINE
REM seed -924336619 -1111121856 -1207140199 -1145588977 537704694 -936387826 661065100 316636613 1742332318 1644359403 1903416053 1067395530
REM
REM S 3|1.8|5|6|7|30:31:32(qc=5)
REM O 2|1.5|12|13|15|20:21(qc=5)
REM Li 1|1.3|8|9|10|10U:20(qc=5)
REM Fe 3|2.2|2.0|1.0|8|9|10|40:41:32(qc=5)
REM 
CELL 1.54180    5.85655    5.85655    5.85655   91.05695   91.05695   91.05695
LATT -1
SFAC Li O  S  Fe 
Li     1 -0.1084200000000  0.3320850000000 -0.3286190000000 1.0  -0.00
Li     1 -0.3286190000000 -0.1084200000000  0.3320850000000 1.0  -0.00
Li     1  0.3320850000000 -0.3286190000000 -0.1084200000000 1.0  -0.00
O      2 -0.3508010000000 -0.3508010000000 -0.3508010000000 1.0  -0.00
S      3 -0.3959570000000  0.3149450000000  0.0741380000000 1.0   0.00
S      3  0.0741380000000 -0.3959570000000  0.3149450000000 1.0   0.00
S      3  0.3149450000000  0.0741380000000 -0.3959570000000 1.0   0.00
S      3 -0.5114540000000 -0.5114540000000 -0.5114540000000 1.0  -0.00
S      3 -0.0196060000000 -0.0196060000000 -0.0196060000000 1.0   0.00
Fe     4  0.1584060000000 -0.0453740000000  0.3046400000000 1.0   0.01
Fe     4  0.3046400000000  0.1584060000000 -0.0453740000000 1.0   0.01
Fe     4 -0.0453740000000  0.3046400000000  0.1584060000000 1.0   0.01
END
