TITL LFSO-Li4Fe3S2O3-200928-055034-0992a0 -0.0260 196.373466 -5.31151202E+003 0.420909E-01 7.99672 12 (Amm2) n - 1
REM
REM Run started: Mon, 28 Sep 2020 18:54:34 +0100 in /scratch/scratch/uccabz1/launch_tmp/launcher_2020-09-28-04-50-32-115888
REM CASTEP 19.11| from code version Version unavailable
REM Functional Perdew Burke Ernzerhof Relativity Koelling-Harmon Dispersion off
REM Cut-off 340.0000 eV Grid scale 1.7500 Gmax 16.5316 1/A FBSC none
REM MP grid 4 4 2 Offset 0.000 0.000 0.000 No. kpts 6 Spacing 0.07
REM Total runtime: 49942.2 s
REM Overall efficiency: 97.8462 %
REM
REM
REM
REM compiler GCC version 4.9.2
REM options -cpp -iprefix /scratch/UCL/applications/gcc/4.9.2/bin/../lib/gcc/x86_64-unknown-linux-gnu/4.9.2/ -mtune=corei7 -march=x86-64 -g -O2
REM COMMAND_LINE
REM seed -1639480296 1871897822 -39728638 1983123938 1107717620 25943434 992236289 -1094387850 -2043103318 -747826629 1561319614 463340669
REM
REM S 3|1.8|5|6|7|30:31:32(qc=5)
REM O 2|1.5|12|13|15|20:21(qc=5)
REM Li 1|1.3|8|9|10|10U:20(qc=5)
REM Fe 3|2.2|2.0|1.0|8|9|10|40:41:32(qc=5)
REM 
CELL 1.54180    6.09519    6.09519    6.84473   90.00000   90.00000   50.55556
LATT -1
SFAC Li O  S  Fe 
Li     1  0.1177490000000 -0.3954810000000  0.2155120000000 1.0  -0.01
Li     1 -0.3954810000000  0.1177490000000 -0.2155120000000 1.0  -0.01
Li     1 -0.3954810000000  0.1177490000000  0.2155120000000 1.0  -0.01
Li     1  0.1177490000000 -0.3954810000000 -0.2155120000000 1.0  -0.01
O      2 -0.5255540000000 -0.5255540000000  0.3203990000000 1.0   0.07
O      2 -0.5255540000000 -0.5255540000000 -0.3203990000000 1.0   0.07
O      2 -0.1235880000000 -0.1235880000000  0.0000000000000 1.0  -0.19
S      3  0.1462690000000  0.1462690000000 -0.2835130000000 1.0  -0.09
S      3  0.1462690000000  0.1462690000000  0.2835130000000 1.0  -0.09
Fe     4 -0.2195510000000  0.3136650000000  0.5000000000000 1.0   1.89
Fe     4  0.3136650000000 -0.2195510000000  0.5000000000000 1.0   1.89
Fe     4  0.0451720000000  0.0451720000000  0.0000000000000 1.0  -3.47
END
