TITL LFSO-Li4Fe3SO4-200930-230528-b36b7d 0.0140 159.645076 -5.44653022E+003 8.16724 8.54527 12 (P3) n - 1
REM
REM Run started: Wed, 30 Sep 2020 23:50:57 +0100 in /lustre/scratch/uccabz1/launch_tmp/launcher_2020-09-30-22-05-27-204850
REM CASTEP 20.1 from code version af48c487+ pr-geom-scf-spinfix Tue Jun 2 15:39:59 2020 +0100
REM Functional Perdew Burke Ernzerhof Relativity Koelling-Harmon Dispersion off
REM Cut-off 340.0000 eV Grid scale 1.7500 Gmax 16.5316 1/A FBSC none
REM MP grid 3 3 3 Offset 0.000 0.000 0.000 No. kpts 8 Spacing 0.07
REM Total runtime: 2866.06 s
REM Overall efficiency: 92.875 %
REM
REM
REM
REM compiler GCC version 4.9.2
REM options -cpp -iprefix /lustre/shared/ucl/apps/gcc/4.9.2/bin/../lib/gcc/x86_64-unknown-linux-gnu/4.9.2/ -mtune=corei7 -march=x86-64 -g -Og
REM COMMAND_LINE
REM seed 1701985224 -1352111544 132068281 -1961790185 207616673 -556728703 -1249763240 -2051723433 1147723018 980599984 11397110 -1523607777
REM
REM S 3|1.8|5|6|7|30:31:32(qc=5)
REM O 2|1.5|12|13|15|20:21(qc=5)
REM Li 1|1.3|8|9|10|10U:20(qc=5)
REM Fe 3|2.2|2.0|1.0|8|9|10|40:41:32(qc=5)
REM 
CELL 1.54180    5.66599    5.66599    5.74214   90.00000   90.00000  120.00000
LATT -1
SFAC Li O  S  Fe 
Li     1  0.2923380000000  0.3285210000000  0.0785970000000 1.0   0.01
Li     1 -0.3285210000000 -0.0361830000000  0.0785970000000 1.0   0.01
Li     1  0.0361830000000 -0.2923380000000  0.0785970000000 1.0   0.01
Li     1 -0.3333330000000  0.3333330000000  0.3018960000000 1.0  -0.08
O      2 -0.0145660000000  0.3353950000000  0.2199420000000 1.0   0.20
O      2 -0.3353950000000 -0.3499610000000  0.2199420000000 1.0   0.20
O      2  0.3499610000000  0.0145660000000  0.2199420000000 1.0   0.20
O      2 -0.0000000000000  0.0000000000000 -0.2584260000000 1.0   0.10
S      3  0.3333330000000 -0.3333330000000 -0.2976300000000 1.0   0.00
Fe     4  0.2134540000000 -0.0492450000000 -0.4925390000000 1.0   2.50
Fe     4  0.0492450000000  0.2626990000000 -0.4925390000000 1.0   2.50
Fe     4 -0.2626990000000 -0.2134540000000 -0.4925390000000 1.0   2.50
END
