TITL LFSO-LiFe3S4O-200909-064641-c21588 -0.0862 310.194710 -8.88598552E+003 0.750514 20.0393 18 (R3) n - 1
REM
REM Run started: Wed, 09 Sep 2020 22:01:39 +0100 in /lustre/scratch/uccabz1/launch_tmp/launcher_2020-09-09-13-37-59-866104
REM CASTEP 20.1 from code version af48c487+ pr-geom-scf-spinfix Tue Jun 2 15:39:59 2020 +0100
REM Functional Perdew Burke Ernzerhof Relativity Koelling-Harmon Dispersion off
REM Cut-off 340.0000 eV Grid scale 1.7500 Gmax 16.5316 1/A FBSC none
REM MP grid 3 3 3 Offset 0.000 0.000 0.000 No. kpts 6 Spacing 0.07
REM Total runtime: 49302.5 s
REM Overall efficiency: 98.4167 %
REM
REM
REM
REM compiler GCC version 4.9.2
REM options -cpp -iprefix /lustre/shared/ucl/apps/gcc/4.9.2/bin/../lib/gcc/x86_64-unknown-linux-gnu/4.9.2/ -mtune=corei7 -march=x86-64 -g -Og
REM COMMAND_LINE
REM seed 1060729162 1620160451 1326061607 -490361873 165313457 -150753708 1957373869 1640071063 -956452912 1576716695 -1327506712 524384875
REM
REM S 3|1.8|5|6|7|30:31:32(qc=5)
REM O 2|1.5|12|13|15|20:21(qc=5)
REM Li 1|1.3|8|9|10|10U:20(qc=5)
REM Fe 3|2.2|2.0|1.0|8|9|10|40:41:32(qc=5)
REM 
CELL 1.54180    6.78075    6.78075    6.78075   86.61010   86.61010   86.61010
LATT -1
SFAC Li O  S  Fe 
Li     1  0.2367990000000  0.2367990000000  0.2367990000000 1.0   0.05
Li     1 -0.2074340000000 -0.2074340000000 -0.2074340000000 1.0  -0.02
O      2 -0.3534000000000 -0.3534000000000 -0.3534000000000 1.0   0.34
O      2  0.1002580000000  0.1002580000000  0.1002580000000 1.0  -0.30
S      3  0.2735430000000 -0.0764990000000 -0.4592540000000 1.0   0.05
S      3 -0.0764990000000 -0.4592540000000  0.2735430000000 1.0   0.05
S      3 -0.4592540000000  0.2735430000000 -0.0764990000000 1.0   0.05
S      3 -0.2134010000000  0.0754200000000  0.5196790000000 1.0  -0.05
S      3  0.0754200000000  0.5196790000000 -0.2134010000000 1.0  -0.05
S      3  0.5196790000000 -0.2134010000000  0.0754200000000 1.0  -0.05
S      3 -0.0225060000000 -0.0225060000000 -0.0225060000000 1.0  -0.57
S      3  0.4173770000000  0.4173770000000  0.4173770000000 1.0  -0.18
Fe     4 -0.2827970000000 -0.2149360000000  0.3893870000000 1.0   3.34
Fe     4 -0.2149360000000  0.3893870000000 -0.2827970000000 1.0   3.34
Fe     4  0.3893870000000 -0.2827970000000 -0.2149360000000 1.0   3.34
Fe     4 -0.3758970000000  0.4803370000000  0.1490560000000 1.0  -2.86
Fe     4  0.4803370000000  0.1490560000000 -0.3758970000000 1.0  -2.86
Fe     4  0.1490560000000 -0.3758970000000  0.4803370000000 1.0  -2.86
END
