TITL LFSO-LiFe3S4O-200909-104248-337cbe -0.0294 339.605316 -8.88730066E+003 11.2841 11.8491 18 (P3) n - 1
REM
REM Run started: Wed, 09 Sep 2020 17:47:31 +0100 in /lustre/scratch/uccabz1/launch_tmp/launcher_2020-09-09-09-42-47-016779
REM CASTEP 20.1 from code version af48c487+ pr-geom-scf-spinfix Tue Jun 2 15:39:59 2020 +0100
REM Functional Perdew Burke Ernzerhof Relativity Koelling-Harmon Dispersion off
REM Cut-off 340.0000 eV Grid scale 1.7500 Gmax 16.5316 1/A FBSC none
REM MP grid 3 3 2 Offset 0.000 0.000 0.000 No. kpts 5 Spacing 0.07
REM Total runtime: 25611.4 s
REM Overall efficiency: 80.4444 %
REM
REM
REM
REM compiler GCC version 4.9.2
REM options -cpp -iprefix /lustre/shared/ucl/apps/gcc/4.9.2/bin/../lib/gcc/x86_64-unknown-linux-gnu/4.9.2/ -mtune=corei7 -march=x86-64 -g -Og
REM COMMAND_LINE
REM seed -1706377524 518834558 1430373167 -1160554492 -435415003 865878524 1788029461 703019202 -42769448 891517365 -928714218 -1488858261
REM
REM S 3|1.8|5|6|7|30:31:32(qc=5)
REM O 2|1.5|12|13|15|20:21(qc=5)
REM Li 1|1.3|8|9|10|10U:20(qc=5)
REM Fe 3|2.2|2.0|1.0|8|9|10|40:41:32(qc=5)
REM 
CELL 1.54180    6.00392    6.00392   10.87864   90.00000   90.00000  120.00000
LATT -1
SFAC Li O  S  Fe 
Li     1 -0.3333330000000  0.3333330000000  0.5580040000000 1.0   0.07
Li     1  0.3333330000000 -0.3333330000000 -0.4575000000000 1.0  -0.05
O      2 -0.3333330000000  0.3333330000000 -0.2626820000000 1.0   0.01
O      2  0.0000000000000 -0.0000000000000 -0.0981790000000 1.0   0.17
S      3 -0.2576020000000 -0.3337580000000  0.3400620000000 1.0   0.06
S      3  0.3337580000000  0.0761560000000  0.3400620000000 1.0   0.06
S      3 -0.0761560000000  0.2576020000000  0.3400620000000 1.0   0.06
S      3  0.1728770000000 -0.1752900000000 -0.2988990000000 1.0   0.18
S      3  0.1752900000000  0.3481670000000 -0.2988990000000 1.0   0.18
S      3 -0.3481670000000 -0.1728770000000 -0.2988990000000 1.0   0.18
S      3  0.3333330000000 -0.3333330000000  0.1741950000000 1.0  -0.07
S      3 -0.3333330000000  0.3333330000000 -0.0222380000000 1.0   0.13
Fe     4 -0.4232540000000 -0.0896530000000  0.3252490000000 1.0   1.04
Fe     4  0.0896530000000 -0.3336010000000  0.3252490000000 1.0   1.04
Fe     4  0.3336010000000  0.4232540000000  0.3252490000000 1.0   1.04
Fe     4  0.3431240000000  0.1709430000000 -0.1725020000000 1.0   2.39
Fe     4 -0.1709430000000  0.1721810000000 -0.1725020000000 1.0   2.39
Fe     4 -0.1721810000000 -0.3431240000000 -0.1725020000000 1.0   2.39
END
