TITL LFSO-LiFeSO-200909-050504-eb3c64 -0.0296 92.125877 -3.61069920E+003 0.127686E-02 0.987585E-02 8 (R3m) n - 1
REM
REM Run started: Wed, 09 Sep 2020 08:05:08 +0100 in /lustre/scratch/uccabz1/launch_tmp/launcher_2020-09-09-04-05-02-682053
REM CASTEP 20.1 from code version af48c487+ pr-geom-scf-spinfix Tue Jun 2 15:39:59 2020 +0100
REM Functional Perdew Burke Ernzerhof Relativity Koelling-Harmon Dispersion off
REM Cut-off 340.0000 eV Grid scale 1.7500 Gmax 16.5316 1/A FBSC none
REM MP grid 6 6 2 Offset 0.000 0.000 0.000 No. kpts 21 Spacing 0.07
REM Total runtime: 10880.6 s
REM Overall efficiency: 94.8889 %
REM
REM
REM
REM compiler GCC version 4.9.2
REM options -cpp -iprefix /lustre/shared/ucl/apps/gcc/4.9.2/bin/../lib/gcc/x86_64-unknown-linux-gnu/4.9.2/ -mtune=corei7 -march=x86-64 -g -Og
REM COMMAND_LINE
REM seed 1899353482 -1856857475 -1248263598 69009449 -663574579 684000602 -1562435911 -425241569 657928941 -2257637 -641562404 -1153309251
REM
REM S 3|1.8|5|6|7|30:31:32(qc=5)
REM O 2|1.5|12|13|15|20:21(qc=5)
REM Li 1|1.3|8|9|10|10U:20(qc=5)
REM Fe 3|2.2|2.0|1.0|8|9|10|40:41:32(qc=5)
REM 
CELL 1.54180    3.24606    3.24606   10.26819   80.90546   80.90546   60.00000
LATT -1
SFAC Li O  S  Fe 
Li     1  0.2411250000000  0.2411250000000 -0.7233740000000 1.0
Li     1 -0.3809020000000 -0.3809020000000  1.1427060000000 1.0
O      2 -0.0782770000000 -0.0782770000000  0.2348300000000 1.0
O      2 -0.4790560000000 -0.4790560000000  1.4371670000000 1.0
S      3 -0.2237970000000 -0.2237970000000  0.6713920000000 1.0
S      3  0.3603500000000  0.3603500000000 -1.0810490000000 1.0
Fe     4  0.0693990000000  0.0693990000000 -0.2081970000000 1.0
Fe     4 -0.1524510000000 -0.1524510000000  0.4573520000000 1.0
END
