TITL LFSO-Li3Fe3S2O4-200929-145443-18fa7c 0.0490 159.278518 -5.54851050E+003 7.12354 7.52561 12 (R3) n - 1
REM
REM Run started: Tue, 29 Sep 2020 15:49:28 +0100 in /lustre/scratch/uccabz1/launch_tmp/launcher_2020-09-29-13-54-42-212098
REM CASTEP 20.1 from code version af48c487+ pr-geom-scf-spinfix Tue Jun 2 15:39:59 2020 +0100
REM Functional Perdew Burke Ernzerhof Relativity Koelling-Harmon Dispersion off
REM Cut-off 340.0000 eV Grid scale 1.7500 Gmax 16.5316 1/A FBSC none
REM MP grid 3 3 3 Offset 0.000 0.000 0.000 No. kpts 6 Spacing 0.07
REM Total runtime: 3338.93 s
REM Overall efficiency: 92.7143 %
REM
REM
REM
REM compiler GCC version 4.9.2
REM options -cpp -iprefix /lustre/shared/ucl/apps/gcc/4.9.2/bin/../lib/gcc/x86_64-unknown-linux-gnu/4.9.2/ -mtune=corei7 -march=x86-64 -g -Og
REM COMMAND_LINE
REM seed -534341024 -1846945261 -2086973416 -614135611 -1919609973 -497938003 -2055579422 827828856 -648854182 -327123810 -1263314995 2048744029
REM
REM S 3|1.8|5|6|7|30:31:32(qc=5)
REM O 2|1.5|12|13|15|20:21(qc=5)
REM Li 1|1.3|8|9|10|10U:20(qc=5)
REM Fe 3|2.2|2.0|1.0|8|9|10|40:41:32(qc=5)
REM 
CELL 1.54180    5.43974    5.43974    5.43974   85.07350   85.07350   85.07350
LATT -1
SFAC Li O  S  Fe 
Li     1  0.0539910000000 -0.1508610000000  0.3533270000000 1.0  -0.09
Li     1  0.3533270000000  0.0539910000000 -0.1508610000000 1.0  -0.09
Li     1 -0.1508610000000  0.3533270000000  0.0539910000000 1.0  -0.09
O      2  0.1407050000000  0.3467840000000 -0.1592090000000 1.0   0.15
O      2 -0.1592090000000  0.1407050000000  0.3467840000000 1.0   0.15
O      2  0.3467840000000 -0.1592090000000  0.1407050000000 1.0   0.15
O      2 -0.1749400000000 -0.1749400000000 -0.1749400000000 1.0  -0.01
S      3 -0.3337510000000 -0.3337510000000 -0.3337510000000 1.0  -0.00
S      3  0.3465610000000  0.3465610000000  0.3465610000000 1.0  -0.02
Fe     4 -0.0170530000000  0.3211150000000 -0.4398690000000 1.0   2.33
Fe     4 -0.4398690000000 -0.0170530000000  0.3211150000000 1.0   2.33
Fe     4  0.3211150000000 -0.4398690000000 -0.0170530000000 1.0   2.33
END
