TITL LFSO-Li4Fe2S2O3-200911-090658-9eb9b6 -0.0047 164.703713 -4.44536760E+003 5.95095 6.17593 11 (P3) n - 1
REM
REM Run started: Fri, 11 Sep 2020 11:38:30 +0100 in /lustre/scratch/uccabz1/launch_tmp/launcher_2020-09-11-08-06-55-512114
REM CASTEP 20.1 from code version af48c487+ pr-geom-scf-spinfix Tue Jun 2 15:39:59 2020 +0100
REM Functional Perdew Burke Ernzerhof Relativity Koelling-Harmon Dispersion off
REM Cut-off 340.0000 eV Grid scale 1.7500 Gmax 16.5316 1/A FBSC none
REM MP grid 4 4 2 Offset 0.000 0.000 0.000 No. kpts 16 Spacing 0.07
REM Total runtime: 9766.54 s
REM Overall efficiency: 97.3333 %
REM
REM
REM
REM compiler GCC version 4.9.2
REM options -cpp -iprefix /lustre/shared/ucl/apps/gcc/4.9.2/bin/../lib/gcc/x86_64-unknown-linux-gnu/4.9.2/ -mtune=corei7 -march=x86-64 -g -Og
REM COMMAND_LINE
REM seed -1054018020 -1570335817 -1765854152 1372818913 1351355398 1396515425 1479280980 1889685408 1952314460 -1735361447 -1347694867 -1869127191
REM
REM S 3|1.8|5|6|7|30:31:32(qc=5)
REM O 2|1.5|12|13|15|20:21(qc=5)
REM Li 1|1.3|8|9|10|10U:20(qc=5)
REM Fe 3|2.2|2.0|1.0|8|9|10|40:41:32(qc=5)
REM 
CELL 1.54180    4.76328    4.76328    8.38225   90.00000   90.00000  120.00000
LATT -1
SFAC Li O  S  Fe 
Li     1  0.0071640000000 -0.3410490000000  0.4513770000000 1.0   0.02
Li     1  0.3410490000000  0.3482130000000  0.4513770000000 1.0   0.02
Li     1 -0.3482130000000 -0.0071640000000  0.4513770000000 1.0   0.02
Li     1 -0.3333330000000  0.3333330000000 -0.2642360000000 1.0  -0.01
O      2  0.3332900000000  0.0208080000000 -0.4111820000000 1.0   0.12
O      2 -0.0208080000000  0.3124830000000 -0.4111820000000 1.0   0.12
O      2 -0.3124830000000 -0.3332900000000 -0.4111820000000 1.0   0.12
S      3  0.3333330000000 -0.3333330000000 -0.0608380000000 1.0   0.43
S      3 -0.0000000000000  0.0000000000000  0.2432890000000 1.0   0.28
Fe     4 -0.0000000000000  0.0000000000000 -0.3220630000000 1.0   1.24
Fe     4 -0.0000000000000  0.0000000000000 -0.0206090000000 1.0   3.60
END
