TITL LFSO-Li2Fe2SO3-200913-104058-829503 0.0455 415.006047 -1.12309211E+004 27.5500 27.6902 24 (Imm2) n - 1
REM
REM Run started: Mon, 14 Sep 2020 06:35:21 +0100 in /lustre/scratch/uccabz1/launch_tmp/launcher_2020-09-13-23-58-50-766686
REM CASTEP 20.1 from code version af48c487+ pr-geom-scf-spinfix Tue Jun 2 15:39:59 2020 +0100
REM Functional Perdew Burke Ernzerhof Relativity Koelling-Harmon Dispersion off
REM Cut-off 340.0000 eV Grid scale 1.7500 Gmax 16.5316 1/A FBSC none
REM MP grid 3 2 2 Offset 0.000 0.000 0.000 No. kpts 5 Spacing 0.07
REM Total runtime: 75144.9 s
REM Overall efficiency: 82.0909 %
REM
REM
REM
REM compiler GCC version 4.9.2
REM options -cpp -iprefix /lustre/shared/ucl/apps/gcc/4.9.2/bin/../lib/gcc/x86_64-unknown-linux-gnu/4.9.2/ -mtune=corei7 -march=x86-64 -g -Og
REM COMMAND_LINE
REM seed 503941607 -479726575 -536423616 1174234183 1614352149 -1607417899 -1525435398 -223153913 947772821 -766590522 -1358772150 -1238771511
REM
REM S 3|1.8|5|6|7|30:31:32(qc=5)
REM O 2|1.5|12|13|15|20:21(qc=5)
REM Li 1|1.3|8|9|10|10U:20(qc=5)
REM Fe 3|2.2|2.0|1.0|8|9|10|40:41:32(qc=5)
REM 
CELL 1.54180    5.42912    9.43661    9.43661  103.91567   73.28192   73.28192
LATT -1
SFAC Li O  S  Fe 
Li     1  0.3131940000000 -0.0271080000000 -0.2615700000000 1.0   0.01
Li     1  0.0245160000000  0.0271080000000  0.2615700000000 1.0   0.01
Li     1  0.0245160000000  0.2615700000000  0.0271080000000 1.0   0.01
Li     1  0.3131940000000 -0.2615700000000 -0.0271080000000 1.0   0.01
Li     1  0.2691260000000  0.3770820000000 -0.3770820000000 1.0  -0.01
Li     1  0.2691260000000 -0.3770820000000  0.3770820000000 1.0  -0.01
O      2  0.1558710000000 -0.0261640000000  0.4083190000000 1.0   0.45
O      2 -0.4619730000000  0.0261640000000 -0.4083190000000 1.0   0.45
O      2 -0.4619730000000 -0.4083190000000  0.0261640000000 1.0   0.45
O      2  0.1558710000000  0.4083190000000 -0.0261640000000 1.0   0.45
O      2 -0.3310490000000  0.0514160000000  0.2725520000000 1.0   0.42
O      2 -0.0070810000000 -0.0514160000000 -0.2725520000000 1.0   0.42
O      2 -0.0070810000000 -0.2725520000000 -0.0514160000000 1.0   0.42
O      2 -0.3310490000000  0.2725520000000  0.0514160000000 1.0   0.42
O      2  0.2540080000000  0.5000000000000  0.5000000000000 1.0   1.01
S      3 -0.2358140000000  0.3211900000000 -0.3211900000000 1.0   0.39
S      3 -0.2358140000000 -0.3211900000000  0.3211900000000 1.0   0.39
S      3  0.3383750000000  0.0000000000000  0.0000000000000 1.0   0.23
Fe     4  0.5214090000000 -0.0554980000000 -0.6044450000000 1.0   3.74
Fe     4 -0.1385340000000  0.0554980000000  0.6044450000000 1.0   3.74
Fe     4 -0.1385340000000  0.6044450000000  0.0554980000000 1.0   3.74
Fe     4  0.5214090000000 -0.6044450000000 -0.0554980000000 1.0   3.74
Fe     4 -0.1772650000000 -0.1209780000000 -0.1209780000000 1.0   3.55
Fe     4  0.5807790000000  0.1209780000000  0.1209780000000 1.0   3.55
END
