TITL LFSO-Li2FeSO-200912-005612-5f666d -0.0048 308.016667 -8.02018411E+003 15.9731 16.2550 20 (F222) n - 1
REM
REM Run started: Sat, 12 Sep 2020 07:16:50 +0100 in /lustre/scratch/uccabz1/launch_tmp/launcher_2020-09-11-23-56-11-150386
REM CASTEP 20.1 from code version af48c487+ pr-geom-scf-spinfix Tue Jun 2 15:39:59 2020 +0100
REM Functional Perdew Burke Ernzerhof Relativity Koelling-Harmon Dispersion off
REM Cut-off 340.0000 eV Grid scale 1.7500 Gmax 16.5316 1/A FBSC none
REM MP grid 3 3 3 Offset 0.000 0.000 0.000 No. kpts 8 Spacing 0.07
REM Total runtime: 25604.4 s
REM Overall efficiency: 94.625 %
REM
REM
REM
REM compiler GCC version 4.9.2
REM options -cpp -iprefix /lustre/shared/ucl/apps/gcc/4.9.2/bin/../lib/gcc/x86_64-unknown-linux-gnu/4.9.2/ -mtune=corei7 -march=x86-64 -g -Og
REM COMMAND_LINE
REM seed 1714543130 543981736 -1836255619 -244225449 957059394 2010645685 -707787953 -615517316 -674137563 -1296503543 -1495741712 2069821589
REM
REM S 3|1.8|5|6|7|30:31:32(qc=5)
REM O 2|1.5|12|13|15|20:21(qc=5)
REM Li 1|1.3|8|9|10|10U:20(qc=5)
REM Fe 3|2.2|2.0|1.0|8|9|10|40:41:32(qc=5)
REM 
CELL 1.54180    7.82401    7.47195    7.31758   73.74593   57.68290   58.42870
LATT -1
SFAC Li O  S  Fe 
Li     1  0.1635330000000  0.1186050000000  0.3462340000000 1.0   0.01
Li     1 -0.2821380000000  0.1186050000000 -0.3462340000000 1.0   0.01
Li     1 -0.5097680000000 -0.1186050000000  0.3462340000000 1.0   0.01
Li     1 -0.3716280000000 -0.1186050000000 -0.3462340000000 1.0   0.01
Li     1  0.3245100000000 -0.5499610000000 -0.2263040000000 1.0  -0.00
Li     1  0.2254510000000 -0.5499610000000  0.2263040000000 1.0  -0.00
Li     1 -0.0982060000000  0.5499610000000 -0.2263040000000 1.0  -0.00
Li     1 -0.4517550000000  0.5499610000000  0.2263040000000 1.0  -0.00
O      2  0.4166020000000  0.1833940000000 -0.2701670000000 1.0   0.28
O      2  0.4000040000000  0.1833940000000  0.2701670000000 1.0   0.28
O      2 -0.1464350000000 -0.1833940000000 -0.2701670000000 1.0   0.28
O      2  0.3298290000000 -0.1833940000000  0.2701670000000 1.0   0.28
S      3 -0.1337120000000  0.2491690000000 -0.2242890000000 1.0   0.29
S      3 -0.1154570000000  0.2491690000000  0.2242890000000 1.0   0.29
S      3  0.3580000000000 -0.2491690000000 -0.2242890000000 1.0   0.29
S      3 -0.1088320000000 -0.2491690000000  0.2242890000000 1.0   0.29
Fe     4  0.1470630000000 -0.1231260000000  0.1523470000000 1.0   3.41
Fe     4 -0.0239370000000 -0.1231260000000 -0.1523470000000 1.0   3.41
Fe     4 -0.2994100000000  0.1231260000000  0.1523470000000 1.0   3.41
Fe     4  0.1762840000000  0.1231260000000 -0.1523470000000 1.0   3.41
END
