TITL LFSO-Li2Fe4S4O-200911-210256-6d83b4 -1.5013 360.287884 -11013.80324002 -1.33371 15.1039 22 (P3) n - 1
REM
REM Run started: Sun, 13 Sep 2020 16:23:43 +0100 in /lustre/scratch/uccabz1/launch_tmp/launcher_2020-09-13-14-02-53-039044
REM CASTEP 20.1 from code version af48c487+ pr-geom-scf-spinfix Tue Jun 2 15:39:59 2020 +0100
REM Functional Perdew Burke Ernzerhof Relativity Koelling-Harmon Dispersion off
REM Cut-off 340.0000 eV Grid scale 1.7500 Gmax 16.5316 1/A FBSC none
REM MP grid 3 3 2 Offset 0.000 0.000 0.000 No. kpts 5 Spacing 0.07
REM Total runtime: 139042 s
REM Overall efficiency: 73.6667 %
REM
REM
REM
REM compiler GCC version 4.9.2
REM options -cpp -iprefix /lustre/shared/ucl/apps/gcc/4.9.2/bin/../lib/gcc/x86_64-unknown-linux-gnu/4.9.2/ -mtune=corei7 -march=x86-64 -g -Og
REM COMMAND_LINE
REM seed 1401845195 1839933622 -376904669 -1772739596 -1447073602 918522733 -445190929 -23322458 1397329604 564913800 -1760125562 -999110265
REM
REM S 3|1.8|5|6|7|30:31:32(qc=5)
REM O 2|1.5|12|13|15|20:21(qc=5)
REM Li 1|1.3|8|9|10|10U:20(qc=5)
REM Fe 3|2.2|2.0|1.0|8|9|10|40:41:32(qc=5)
REM 
CELL 1.54180    6.46466    6.46466    9.95468   90.00000   90.00000  120.00000
LATT -1
SFAC Li O  S  Fe 
Li     1  0.4061690000000  0.1001780000000  0.3428590000000 1.0  -0.02
Li     1 -0.1001780000000 -0.6940090000000  0.3428590000000 1.0  -0.02
Li     1  0.6940090000000 -0.4061690000000  0.3428590000000 1.0  -0.02
Li     1 -0.3333330000000  0.3333330000000 -0.4128300000000 1.0   0.05
O      2  0.0000000000000  0.0000000000000 -0.0610770000000 1.0  -0.34
O      2 -0.3333330000000  0.3333330000000  0.4144360000000 1.0   0.00
S      3  0.0063770000000  0.4192500000000  0.1017980000000 1.0  -0.02
S      3 -0.4192500000000 -0.4128730000000  0.1017980000000 1.0  -0.02
S      3  0.4128730000000 -0.0063770000000  0.1017980000000 1.0  -0.02
S      3 -0.0158070000000 -0.4241730000000 -0.2186930000000 1.0   0.02
S      3  0.4241730000000  0.4083650000000 -0.2186930000000 1.0   0.02
S      3 -0.4083650000000  0.0158070000000 -0.2186930000000 1.0   0.02
S      3 -0.0000000000000  0.0000000000000 -0.3840460000000 1.0  -0.21
S      3 -0.0000000000000  0.0000000000000  0.2675510000000 1.0  -0.21
Fe     4 -0.2305560000000  0.0059940000000  0.0820710000000 1.0  -2.78
Fe     4 -0.0059940000000 -0.2365500000000  0.0820710000000 1.0  -2.78
Fe     4  0.2365500000000  0.2305560000000  0.0820710000000 1.0  -2.78
Fe     4  0.2384300000000  0.0068320000000 -0.2164560000000 1.0  -2.46
Fe     4 -0.0068320000000  0.2315980000000 -0.2164560000000 1.0  -2.46
Fe     4 -0.2315980000000 -0.2384300000000 -0.2164560000000 1.0  -2.46
Fe     4  0.3333330000000 -0.3333330000000 -0.0353840000000 1.0   3.07
Fe     4  0.3333330000000 -0.3333330000000 -0.2759990000000 1.0   2.65
END
