TITL LFSO-Li2Fe3S2O2-200921-025609-c0b7d6 0.0783 240.222191 -4.46828683E+003 7.55342 7.77348 9 (Pmmm) n - 1
REM
REM Run started: Mon, 21 Sep 2020 06:02:33 +0100 in /lustre/scratch/uccabz1/launch_tmp/launcher_2020-09-21-01-56-07-522534
REM CASTEP 20.1 from code version af48c487+ pr-geom-scf-spinfix Tue Jun 2 15:39:59 2020 +0100
REM Functional Perdew Burke Ernzerhof Relativity Koelling-Harmon Dispersion off
REM Cut-off 340.0000 eV Grid scale 1.7500 Gmax 16.5316 1/A FBSC none
REM MP grid 5 2 2 Offset 0.000 0.000 0.000 No. kpts 3 Spacing 0.07
REM Total runtime: 11217.9 s
REM Overall efficiency: 94.5455 %
REM
REM
REM
REM compiler GCC version 4.9.2
REM options -cpp -iprefix /lustre/shared/ucl/apps/gcc/4.9.2/bin/../lib/gcc/x86_64-unknown-linux-gnu/4.9.2/ -mtune=corei7 -march=x86-64 -g -Og
REM COMMAND_LINE
REM seed 1979122478 -512630024 2045638944 -486233926 -5314391 1293859638 -1884830388 930805429 1404849720 265436270 727258123 -347412694
REM
REM S 3|1.8|5|6|7|30:31:32(qc=5)
REM O 2|1.5|12|13|15|20:21(qc=5)
REM Li 1|1.3|8|9|10|10U:20(qc=5)
REM Fe 3|2.2|2.0|1.0|8|9|10|40:41:32(qc=5)
REM 
CELL 1.54180    3.03160    7.35523   10.77319   90.00000   90.00000   90.00000
LATT -1
SFAC Li O  S  Fe 
Li     1 -0.0000000000000 -0.5000000000000 -0.3193160000000 1.0   0.33
Li     1 -0.0000000000000 -0.5000000000000  0.3193160000000 1.0   0.33
O      2 -0.0000000000000  0.0000000000000  0.1487410000000 1.0  -0.02
O      2 -0.0000000000000  0.0000000000000 -0.1487410000000 1.0  -0.02
S      3 -0.5000000000000 -0.5000000000000  0.1440650000000 1.0   0.14
S      3 -0.5000000000000 -0.5000000000000 -0.1440650000000 1.0   0.14
Fe     4 -0.0000000000000  0.3351190000000 -0.0000000000000 1.0   3.26
Fe     4 -0.0000000000000 -0.3351190000000 -0.0000000000000 1.0   3.26
Fe     4 -0.0000000000000  0.0000000000000 -0.0000000000000 1.0   0.13
END
