TITL LFSO-Li3FeSO2-200911-161338-a1121e -0.0209 115.755386 -2.63956957E+003 -3.00468 3.23765 7 (R3) n - 1
REM
REM Run started: Fri, 11 Sep 2020 16:36:01 +0100 in /lustre/scratch/uccabz1/launch_tmp/launcher_2020-09-11-15-13-36-287150
REM CASTEP 20.1 from code version af48c487+ pr-geom-scf-spinfix Tue Jun 2 15:39:59 2020 +0100
REM Functional Perdew Burke Ernzerhof Relativity Koelling-Harmon Dispersion off
REM Cut-off 340.0000 eV Grid scale 1.7500 Gmax 16.5316 1/A FBSC none
REM MP grid 3 3 3 Offset 0.000 0.000 0.000 No. kpts 6 Spacing 0.07
REM Total runtime: 1378.84 s
REM Overall efficiency: 87.8 %
REM
REM
REM
REM compiler GCC version 4.9.2
REM options -cpp -iprefix /lustre/shared/ucl/apps/gcc/4.9.2/bin/../lib/gcc/x86_64-unknown-linux-gnu/4.9.2/ -mtune=corei7 -march=x86-64 -g -Og
REM COMMAND_LINE
REM seed -635844817 1873778151 -513206599 1993935915 2036538259 -1834070650 1959267961 670104822 -1028766797 -640411166 970739883 2015438588
REM
REM S 3|1.8|5|6|7|30:31:32(qc=5)
REM O 2|1.5|12|13|15|20:21(qc=5)
REM Li 1|1.3|8|9|10|10U:20(qc=5)
REM Fe 3|2.2|2.0|1.0|8|9|10|40:41:32(qc=5)
REM 
CELL 1.54180    4.87934    4.87934    4.87934   92.73979   92.73979   92.73979
LATT -1
SFAC Li O  S  Fe 
Li     1 -0.4114280000000  0.2980040000000 -0.3002180000000 1.0   0.06
Li     1 -0.3002180000000 -0.4114280000000  0.2980040000000 1.0   0.06
Li     1  0.2980040000000 -0.3002180000000 -0.4114280000000 1.0   0.06
O      2  0.3642600000000  0.3642600000000  0.3642600000000 1.0  -0.04
O      2 -0.3262790000000 -0.3262790000000 -0.3262790000000 1.0  -0.13
S      3  0.1580620000000  0.1580620000000  0.1580620000000 1.0  -0.19
Fe     4 -0.1074500000000 -0.1074500000000 -0.1074500000000 1.0  -2.82
END
