TITL LFSO-Li4Fe2SO4-200910-145120-ce0c51 0.0838 320.551344 -9.16616715E+003 -9.21883 9.70883 22 (Pc) n - 1
REM
REM Run started: Fri, 11 Sep 2020 05:38:11 +0100 in /lustre/scratch/uccabz1/launch_tmp/launcher_2020-09-10-13-51-18-741859
REM CASTEP 20.1 from code version af48c487+ pr-geom-scf-spinfix Tue Jun 2 15:39:59 2020 +0100
REM Functional Perdew Burke Ernzerhof Relativity Koelling-Harmon Dispersion off
REM Cut-off 340.0000 eV Grid scale 1.7500 Gmax 16.5316 1/A FBSC none
REM MP grid 5 2 2 Offset 0.000 0.000 0.000 No. kpts 5 Spacing 0.07
REM Total runtime: 56293.7 s
REM Overall efficiency: 82.5 %
REM
REM
REM
REM compiler GCC version 4.9.2
REM options -cpp -iprefix /lustre/shared/ucl/apps/gcc/4.9.2/bin/../lib/gcc/x86_64-unknown-linux-gnu/4.9.2/ -mtune=corei7 -march=x86-64 -g -Og
REM COMMAND_LINE
REM seed -284495587 -158831686 -1639730413 1189931025 -1153629172 -853321444 1403975816 -1822478405 281299614 -1098780392 910771256 -259733601
REM
REM S 3|1.8|5|6|7|30:31:32(qc=5)
REM O 2|1.5|12|13|15|20:21(qc=5)
REM Li 1|1.3|8|9|10|10U:20(qc=5)
REM Fe 3|2.2|2.0|1.0|8|9|10|40:41:32(qc=5)
REM 
CELL 1.54180    3.43668    8.18157   12.81413   90.00000   62.83296   90.00000
LATT -1
SFAC Li O  S  Fe 
Li     1  0.7480970000000 -0.2684470000000 -0.4950420000000 1.0   0.02
Li     1  0.7480970000000  0.2684470000000  0.0049580000000 1.0   0.02
Li     1 -0.0746160000000 -0.5271090000000  0.1592080000000 1.0  -0.02
Li     1 -0.0746160000000  0.5271090000000 -0.3407920000000 1.0  -0.02
Li     1  0.0370230000000 -0.2157470000000 -0.2144270000000 1.0   0.01
Li     1  0.0370230000000  0.2157470000000  0.2855730000000 1.0   0.01
Li     1 -0.5785320000000 -0.0478770000000  0.3029430000000 1.0  -0.01
Li     1 -0.5785320000000  0.0478770000000 -0.1970570000000 1.0  -0.01
O      2  0.5473110000000  0.6549270000000 -0.2094320000000 1.0  -0.20
O      2  0.5473110000000 -0.6549270000000  0.2905680000000 1.0  -0.20
O      2  0.2511680000000 -0.3661800000000  0.5007630000000 1.0  -0.22
O      2  0.2511680000000  0.3661800000000  0.0007630000000 1.0  -0.22
O      2 -0.7763130000000  0.3256010000000 -0.4300520000000 1.0  -0.09
O      2 -0.7763130000000 -0.3256010000000  0.0699480000000 1.0  -0.09
O      2  0.0285110000000 -0.0217090000000  0.2378060000000 1.0  -0.11
O      2  0.0285110000000  0.0217090000000 -0.2621940000000 1.0  -0.11
S      3 -0.1111750000000 -0.0235410000000  0.0050800000000 1.0  -0.02
S      3 -0.1111750000000  0.0235410000000  0.5050800000000 1.0  -0.02
Fe     4 -0.7675160000000 -0.1134480000000  0.0982310000000 1.0  -0.88
Fe     4 -0.7675160000000  0.1134480000000 -0.4017690000000 1.0  -0.88
Fe     4  0.3615100000000  0.4363320000000  0.4340410000000 1.0  -3.08
Fe     4  0.3615100000000 -0.4363320000000 -0.0659590000000 1.0  -3.08
END
