TITL LFSO-Li4Fe3S2O3-200928-075839-3244d5 0.0574 409.463605 -1.06235810E+004 21.9623 22.1851 24 (C222) n - 1
REM
REM Run started: Mon, 28 Sep 2020 15:52:00 +0100 in /scratch/scratch/uccabz1/launch_tmp/launcher_2020-09-28-06-58-37-905016
REM CASTEP 19.11| from code version Version unavailable
REM Functional Perdew Burke Ernzerhof Relativity Koelling-Harmon Dispersion off
REM Cut-off 340.0000 eV Grid scale 1.7500 Gmax 16.5316 1/A FBSC none
REM MP grid 2 2 3 Offset 0.000 0.000 0.000 No. kpts 4 Spacing 0.07
REM Total runtime: 28996.4 s
REM Overall efficiency: 98.5714 %
REM
REM
REM
REM compiler GCC version 4.9.2
REM options -cpp -iprefix /scratch/UCL/applications/gcc/4.9.2/bin/../lib/gcc/x86_64-unknown-linux-gnu/4.9.2/ -mtune=corei7 -march=x86-64 -g -O2
REM COMMAND_LINE
REM seed 1174645227 754416565 232179817 1079773739 1020209588 1178868735 -1781296509 -314358546 -700355249 -2008968699 1871491932 1514088952
REM
REM S 3|1.8|5|6|7|30:31:32(qc=5)
REM O 2|1.5|12|13|15|20:21(qc=5)
REM Li 1|1.3|8|9|10|10U:20(qc=5)
REM Fe 3|2.2|2.0|1.0|8|9|10|40:41:32(qc=5)
REM 
CELL 1.54180    7.74903    7.74903    6.98695   90.00000   90.00000  102.58772
LATT -1
SFAC Li O  S  Fe 
Li     1  0.3028030000000 -0.0360540000000 -0.1885590000000 1.0   0.06
Li     1 -0.3028030000000  0.0360540000000 -0.1885590000000 1.0   0.06
Li     1  0.0360540000000 -0.3028030000000  0.1885590000000 1.0   0.06
Li     1 -0.0360540000000  0.3028030000000  0.1885590000000 1.0   0.06
Li     1  0.0341730000000 -0.3397480000000 -0.1642620000000 1.0  -0.01
Li     1 -0.0341730000000  0.3397480000000 -0.1642620000000 1.0  -0.01
Li     1  0.3397480000000 -0.0341730000000  0.1642620000000 1.0  -0.01
Li     1 -0.3397480000000  0.0341730000000  0.1642620000000 1.0  -0.01
O      2  0.1857310000000  0.4876320000000 -0.1498870000000 1.0   0.24
O      2 -0.1857310000000 -0.4876320000000 -0.1498870000000 1.0   0.24
O      2 -0.4876320000000 -0.1857310000000  0.1498870000000 1.0   0.24
O      2  0.4876320000000  0.1857310000000  0.1498870000000 1.0   0.24
O      2  0.1732900000000 -0.1732900000000  0.0000000000000 1.0   0.18
O      2 -0.1732900000000  0.1732900000000  0.0000000000000 1.0   0.18
S      3 -0.4728890000000 -0.2276940000000 -0.3261820000000 1.0   0.23
S      3  0.4728890000000  0.2276940000000 -0.3261820000000 1.0   0.23
S      3  0.2276940000000  0.4728890000000  0.3261820000000 1.0   0.23
S      3 -0.2276940000000 -0.4728890000000  0.3261820000000 1.0   0.23
Fe     4  0.5263890000000 -0.3372050000000  0.3620350000000 1.0   3.07
Fe     4 -0.5263890000000  0.3372050000000  0.3620350000000 1.0   3.07
Fe     4  0.3372050000000 -0.5263890000000 -0.3620350000000 1.0   3.07
Fe     4 -0.3372050000000  0.5263890000000 -0.3620350000000 1.0   3.07
Fe     4 -0.3431020000000  0.3431020000000  0.0000000000000 1.0   3.62
Fe     4  0.3431020000000 -0.3431020000000  0.0000000000000 1.0   3.62
END
