TITL LFSO-Li2Fe4S3O2-200912-035928-999b9c 0.0215 362.914060 -1.12770601E+004 23.8435 24.6481 22 (C222) n - 1
REM
REM Run started: Sun, 13 Sep 2020 08:01:43 +0100 in /lustre/scratch/uccabz1/launch_tmp/launcher_2020-09-12-10-03-47-381083
REM CASTEP 20.1 from code version af48c487+ pr-geom-scf-spinfix Tue Jun 2 15:39:59 2020 +0100
REM Functional Perdew Burke Ernzerhof Relativity Koelling-Harmon Dispersion off
REM Cut-off 340.0000 eV Grid scale 1.7500 Gmax 16.5316 1/A FBSC none
REM MP grid 3 3 2 Offset 0.000 0.000 0.000 No. kpts 4 Spacing 0.07
REM Total runtime: 92934.2 s
REM Overall efficiency: 97.5385 %
REM
REM
REM
REM compiler GCC version 4.9.2
REM options -cpp -iprefix /lustre/shared/ucl/apps/gcc/4.9.2/bin/../lib/gcc/x86_64-unknown-linux-gnu/4.9.2/ -mtune=corei7 -march=x86-64 -g -Og
REM COMMAND_LINE
REM seed -1037456431 -1420480453 2113762788 2066500414 700499611 -1793749723 1816668252 102058002 -411351008 493152030 994319547 1455990343
REM
REM S 3|1.8|5|6|7|30:31:32(qc=5)
REM O 2|1.5|12|13|15|20:21(qc=5)
REM Li 1|1.3|8|9|10|10U:20(qc=5)
REM Fe 3|2.2|2.0|1.0|8|9|10|40:41:32(qc=5)
REM 
CELL 1.54180    6.43718    6.43718    9.31069   90.00000   90.00000  109.83828
LATT -1
SFAC Li O  S  Fe 
Li     1 -0.1654660000000  0.4328840000000 -0.0119400000000 1.0   0.01
Li     1  0.1654660000000 -0.4328840000000 -0.0119400000000 1.0   0.01
Li     1 -0.4328840000000  0.1654660000000  0.0119400000000 1.0   0.01
Li     1  0.4328840000000 -0.1654660000000  0.0119400000000 1.0   0.01
O      2  0.3020260000000  0.0361210000000  0.0874770000000 1.0   0.42
O      2 -0.3020260000000 -0.0361210000000  0.0874770000000 1.0   0.42
O      2 -0.0361210000000 -0.3020260000000 -0.0874770000000 1.0   0.42
O      2  0.0361210000000  0.3020260000000 -0.0874770000000 1.0   0.42
S      3  0.5792370000000  0.3072920000000 -0.2380090000000 1.0   0.02
S      3 -0.5792370000000 -0.3072920000000 -0.2380090000000 1.0   0.02
S      3 -0.3072920000000 -0.5792370000000  0.2380090000000 1.0   0.02
S      3  0.3072920000000  0.5792370000000  0.2380090000000 1.0   0.02
S      3  0.0000000000000  0.0000000000000  0.3382390000000 1.0   0.05
S      3  0.0000000000000  0.0000000000000 -0.3382390000000 1.0   0.05
Fe     4  0.1310490000000 -0.2913170000000 -0.3678250000000 1.0   3.00
Fe     4 -0.1310490000000  0.2913170000000 -0.3678250000000 1.0   3.00
Fe     4  0.2913170000000 -0.1310490000000  0.3678250000000 1.0   3.00
Fe     4 -0.2913170000000  0.1310490000000  0.3678250000000 1.0   3.00
Fe     4  0.3194350000000  0.2138280000000  0.2279800000000 1.0   2.48
Fe     4 -0.3194350000000 -0.2138280000000  0.2279800000000 1.0   2.48
Fe     4 -0.2138280000000 -0.3194350000000 -0.2279800000000 1.0   2.48
Fe     4  0.2138280000000  0.3194350000000 -0.2279800000000 1.0   2.48
END
