TITL LFSO-LiFe3S4O-200909-074654-0f969c 0.0154 177.095581 -4.44338104E+003 3.67358 8.83971 9 (I-4m2) n - 1
REM
REM Run started: Wed, 09 Sep 2020 08:37:28 +0100 in /lustre/scratch/uccabz1/launch_tmp/launcher_2020-09-09-06-46-52-619967
REM CASTEP 20.1 from code version af48c487+ pr-geom-scf-spinfix Tue Jun 2 15:39:59 2020 +0100
REM Functional Perdew Burke Ernzerhof Relativity Koelling-Harmon Dispersion off
REM Cut-off 340.0000 eV Grid scale 1.7500 Gmax 16.5316 1/A FBSC none
REM MP grid 4 4 3 Offset 0.000 0.000 0.000 No. kpts 16 Spacing 0.07
REM Total runtime: 4392.93 s
REM Overall efficiency: 95.8 %
REM
REM
REM
REM compiler GCC version 4.9.2
REM options -cpp -iprefix /lustre/shared/ucl/apps/gcc/4.9.2/bin/../lib/gcc/x86_64-unknown-linux-gnu/4.9.2/ -mtune=corei7 -march=x86-64 -g -Og
REM COMMAND_LINE
REM seed 681712392 614315495 -2106996425 1809520030 -417538056 1262621484 -1402418422 -1313467131 698827412 808794661 -1084011678 -356034250
REM
REM S 3|1.8|5|6|7|30:31:32(qc=5)
REM O 2|1.5|12|13|15|20:21(qc=5)
REM Li 1|1.3|8|9|10|10U:20(qc=5)
REM Fe 3|2.2|2.0|1.0|8|9|10|40:41:32(qc=5)
REM 
CELL 1.54180    6.18894    6.18894    6.22043  103.56362  103.56362  121.90848
LATT -1
SFAC Li O  S  Fe 
Li     1  0.0000000000000 -0.0000000000000  0.0000000000000 1.0   0.02
O      2  0.2500000000000 -0.2500000000000  0.5000000000000 1.0   0.41
S      3  0.5322430000000  0.3008710000000  0.2317050000000 1.0   0.04
S      3 -0.3008710000000 -0.5322430000000 -0.2317050000000 1.0   0.04
S      3  0.0691660000000  0.3005380000000 -0.2317050000000 1.0   0.04
S      3 -0.3005380000000 -0.0691660000000  0.2317050000000 1.0   0.04
Fe     4 -0.4522980000000  0.0477020000000  0.5000000000000 1.0   2.73
Fe     4 -0.0477020000000  0.4522980000000  0.5000000000000 1.0   2.73
Fe     4  0.5000000000000  0.5000000000000  0.0000000000000 1.0  -2.36
END
