TITL LFSO-Li2Fe2S3O-200913-073443-95d0d2 0.0192 180.821778 -3.47528706E+003 -0.133065E-03 0.965727E-02 8 (R3) n - 1
REM
REM Run started: Sun, 13 Sep 2020 09:36:59 +0100 in /lustre/scratch/uccabz1/launch_tmp/launcher_2020-09-13-06-34-41-680023
REM CASTEP 20.1 from code version af48c487+ pr-geom-scf-spinfix Tue Jun 2 15:39:59 2020 +0100
REM Functional Perdew Burke Ernzerhof Relativity Koelling-Harmon Dispersion off
REM Cut-off 340.0000 eV Grid scale 1.7500 Gmax 16.5316 1/A FBSC none
REM MP grid 3 3 3 Offset 0.000 0.000 0.000 No. kpts 6 Spacing 0.07
REM Total runtime: 7816.71 s
REM Overall efficiency: 94.8889 %
REM
REM
REM
REM compiler GCC version 4.9.2
REM options -cpp -iprefix /lustre/shared/ucl/apps/gcc/4.9.2/bin/../lib/gcc/x86_64-unknown-linux-gnu/4.9.2/ -mtune=corei7 -march=x86-64 -g -Og
REM COMMAND_LINE
REM seed -684924518 813870483 -886250428 -236784975 1618733522 -1663918546 -684113824 1515259709 1802573932 1881119995 2097795389 1882104160
REM
REM S 3|1.8|5|6|7|30:31:32(qc=5)
REM O 2|1.5|12|13|15|20:21(qc=5)
REM Li 1|1.3|8|9|10|10U:20(qc=5)
REM Fe 3|2.2|2.0|1.0|8|9|10|40:41:32(qc=5)
REM 
CELL 1.54180    6.57624    6.57624    6.57624   55.65358   55.65358   55.65358
LATT -1
SFAC Li O  S  Fe 
Li     1 -0.1091370000000 -0.1091370000000 -0.1091370000000 1.0
Li     1 -0.3902390000000 -0.3902390000000 -0.3902390000000 1.0
O      2 -0.5008390000000 -0.5008390000000 -0.5008390000000 1.0
S      3 -0.3293130000000  0.3190300000000  0.0419310000000 1.0
S      3  0.0419310000000 -0.3293130000000  0.3190300000000 1.0
S      3  0.3190300000000  0.0419310000000 -0.3293130000000 1.0
Fe     4  0.0439960000000  0.0439960000000  0.0439960000000 1.0
Fe     4  0.3994270000000  0.3994270000000  0.3994270000000 1.0
END
