TITL LFSO-Li5FeSO3-200910-061902-b7d829 0.1174 227.628510 -3.47794560E+003 4.65762 4.89090 10 (C2) n - 1
REM
REM Run started: Thu, 10 Sep 2020 10:41:06 +0100 in /lustre/scratch/uccabz1/launch_tmp/launcher_2020-09-10-05-19-00-159722
REM CASTEP 20.1 from code version af48c487+ pr-geom-scf-spinfix Tue Jun 2 15:39:59 2020 +0100
REM Functional Perdew Burke Ernzerhof Relativity Koelling-Harmon Dispersion off
REM Cut-off 340.0000 eV Grid scale 1.7500 Gmax 16.5316 1/A FBSC none
REM MP grid 5 3 2 Offset 0.000 0.000 0.000 No. kpts 14 Spacing 0.07
REM Total runtime: 18181 s
REM Overall efficiency: 96.6667 %
REM
REM
REM
REM compiler GCC version 4.9.2
REM options -cpp -iprefix /lustre/shared/ucl/apps/gcc/4.9.2/bin/../lib/gcc/x86_64-unknown-linux-gnu/4.9.2/ -mtune=corei7 -march=x86-64 -g -Og
REM COMMAND_LINE
REM seed 1102303797 1637158151 -821406835 -592831597 169065755 -1045824766 1414718108 580103370 -660216062 1994559438 -82294399 1548179218
REM
REM S 3|1.8|5|6|7|30:31:32(qc=5)
REM O 2|1.5|12|13|15|20:21(qc=5)
REM Li 1|1.3|8|9|10|10U:20(qc=5)
REM Fe 3|2.2|2.0|1.0|8|9|10|40:41:32(qc=5)
REM 
CELL 1.54180    3.38520    6.87774   10.28909   87.21802   78.62559   75.75324
LATT -1
SFAC Li O  S  Fe 
Li     1 -0.2606750000000 -0.0500280000000 -0.4315020000000 1.0  -0.02
Li     1  0.3107030000000 -0.0500280000000  0.4315020000000 1.0  -0.02
Li     1 -0.0772770000000 -0.0686920000000  0.1941990000000 1.0  -0.06
Li     1  0.1459690000000 -0.0686920000000 -0.1941990000000 1.0  -0.06
Li     1  0.2141220000000 -0.4282440000000  0.0000000000000 1.0   0.05
O      2  0.2056340000000 -0.0557440000000 -0.3693970000000 1.0   0.44
O      2 -0.1498900000000 -0.0557440000000  0.3693970000000 1.0   0.44
O      2 -0.1607370000000  0.3214740000000  0.0000000000000 1.0   0.32
S      3 -0.4257580000000 -0.1484830000000  0.0000000000000 1.0   0.10
Fe     4  0.4071710000000  0.1856570000000  0.0000000000000 1.0   3.46
END
