TITL LFSO-Li2Fe2S3O-200913-043751-6e3a4c -0.0318 467.283462 -1.04233052E+004 -12.2348 13.0613 24 (C2) n - 1
REM
REM Run started: Mon, 14 Sep 2020 16:07:06 +0100 in /lustre/scratch/uccabz1/launch_tmp/launcher_2020-09-14-13-25-15-495689
REM CASTEP 20.1 from code version af48c487+ pr-geom-scf-spinfix Tue Jun 2 15:39:59 2020 +0100
REM Functional Perdew Burke Ernzerhof Relativity Koelling-Harmon Dispersion off
REM Cut-off 340.0000 eV Grid scale 1.7500 Gmax 16.5316 1/A FBSC none
REM MP grid 4 2 2 Offset 0.000 0.000 0.000 No. kpts 6 Spacing 0.07
REM Total runtime: 96366.6 s
REM Overall efficiency: 98.7 %
REM
REM
REM
REM compiler GCC version 4.9.2
REM options -cpp -iprefix /lustre/shared/ucl/apps/gcc/4.9.2/bin/../lib/gcc/x86_64-unknown-linux-gnu/4.9.2/ -mtune=corei7 -march=x86-64 -g -Og
REM COMMAND_LINE
REM seed 1162890129 1793126696 -333967202 -765157957 23178405 58198952 -453242806 -1388293492 -1716008754 -1669777028 267991845 -25098561
REM
REM S 3|1.8|5|6|7|30:31:32(qc=5)
REM O 2|1.5|12|13|15|20:21(qc=5)
REM Li 1|1.3|8|9|10|10U:20(qc=5)
REM Fe 3|2.2|2.0|1.0|8|9|10|40:41:32(qc=5)
REM 
CELL 1.54180    4.57214   11.10929   11.10929  122.45678   95.30009   95.30009
LATT -1
SFAC Li O  S  Fe 
Li     1 -0.4806260000000 -0.1860160000000  0.6086060000000 1.0  -0.04
Li     1  0.4806260000000 -0.6086060000000  0.1860160000000 1.0  -0.04
Li     1 -0.0175200000000  0.6942450000000 -0.1379480000000 1.0   0.00
Li     1  0.0175200000000  0.1379480000000 -0.6942450000000 1.0   0.00
Li     1  0.1432370000000  0.1128520000000 -0.4206570000000 1.0  -0.01
Li     1 -0.1432370000000  0.4206570000000 -0.1128520000000 1.0  -0.01
O      2  0.0181160000000 -0.3674770000000 -0.0094270000000 1.0  -0.05
O      2 -0.0181160000000  0.0094270000000  0.3674770000000 1.0  -0.05
O      2  0.0000000000000  0.1004680000000 -0.1004680000000 1.0  -0.01
S      3  0.5207190000000 -0.2674290000000 -0.2254030000000 1.0  -0.12
S      3 -0.5207190000000  0.2254030000000  0.2674290000000 1.0  -0.12
S      3 -0.3794790000000  0.2526300000000 -0.4038150000000 1.0  -0.03
S      3  0.3794790000000  0.4038150000000 -0.2526300000000 1.0  -0.03
S      3  0.3324500000000  0.1994170000000 -0.0964900000000 1.0  -0.07
S      3 -0.3324500000000  0.0964900000000 -0.1994170000000 1.0  -0.07
S      3  0.0240410000000  0.4904720000000  0.1504350000000 1.0  -0.05
S      3 -0.0240410000000 -0.1504350000000 -0.4904720000000 1.0  -0.05
S      3  0.0000000000000 -0.4901160000000  0.4901160000000 1.0   0.04
Fe     4 -0.1765380000000 -0.3377050000000  0.1416370000000 1.0  -2.07
Fe     4  0.1765380000000 -0.1416370000000  0.3377050000000 1.0  -2.07
Fe     4 -0.3263580000000 -0.1300730000000  0.3473250000000 1.0  -2.35
Fe     4  0.3263580000000 -0.3473250000000  0.1300730000000 1.0  -2.35
Fe     4 -0.3563110000000  0.3773490000000  0.4916350000000 1.0  -1.35
Fe     4  0.3563110000000 -0.4916350000000 -0.3773490000000 1.0  -1.35
END
