TITL LFSO-Li2Fe4S2O3-200912-074721-bff51a 0.5772 288.939555 -1.15515247E+004 -2.77861 22.6473 22 (R3) n - 1
REM
REM Run started: Mon, 14 Sep 2020 00:29:20 +0100 in /lustre/scratch/uccabz1/launch_tmp/launcher_2020-09-13-22-10-54-356973
REM CASTEP 20.1 from code version af48c487+ pr-geom-scf-spinfix Tue Jun 2 15:39:59 2020 +0100
REM Functional Perdew Burke Ernzerhof Relativity Koelling-Harmon Dispersion off
REM Cut-off 340.0000 eV Grid scale 1.7500 Gmax 16.5316 1/A FBSC none
REM MP grid 3 3 3 Offset 0.000 0.000 0.000 No. kpts 6 Spacing 0.07
REM Total runtime: 136548 s
REM Overall efficiency: 98.9 %
REM
REM
REM
REM compiler GCC version 4.9.2
REM options -cpp -iprefix /lustre/shared/ucl/apps/gcc/4.9.2/bin/../lib/gcc/x86_64-unknown-linux-gnu/4.9.2/ -mtune=corei7 -march=x86-64 -g -Og
REM COMMAND_LINE
REM seed -361869557 91043901 -340011308 1367354613 -1301190048 -975045512 325374293 1576977611 1136306559 -1935384118 239445323 -1038340178
REM
REM S 3|1.8|5|6|7|30:31:32(qc=5)
REM O 2|1.5|12|13|15|20:21(qc=5)
REM Li 1|1.3|8|9|10|10U:20(qc=5)
REM Fe 3|2.2|2.0|1.0|8|9|10|40:41:32(qc=5)
REM 
CELL 1.54180    9.41724    9.41724    9.41724   38.36093   38.36093   38.36093
LATT -1
SFAC Li O  S  Fe 
Li     1  0.2807470000000 -0.1914800000000 -0.1753520000000 1.0  -0.01
Li     1 -0.1914800000000 -0.1753520000000  0.2807470000000 1.0  -0.01
Li     1 -0.1753520000000  0.2807470000000 -0.1914800000000 1.0  -0.01
Li     1  0.2842810000000  0.2842810000000  0.2842810000000 1.0  -0.01
O      2 -0.0463440000000 -0.2885530000000  0.4396150000000 1.0  -0.25
O      2 -0.2885530000000  0.4396150000000 -0.0463440000000 1.0  -0.25
O      2  0.4396150000000 -0.0463440000000 -0.2885530000000 1.0  -0.25
O      2  0.6101210000000  0.1040110000000  0.0891660000000 1.0   0.35
O      2  0.1040110000000  0.0891660000000  0.6101210000000 1.0   0.35
O      2  0.0891660000000  0.6101210000000  0.1040110000000 1.0   0.35
S      3  0.0963350000000 -0.4847020000000 -0.1945010000000 1.0  -0.05
S      3 -0.4847020000000 -0.1945010000000  0.0963350000000 1.0  -0.05
S      3 -0.1945010000000  0.0963350000000 -0.4847020000000 1.0  -0.05
S      3 -0.4333720000000 -0.4333720000000 -0.4333720000000 1.0  -0.14
Fe     4 -0.3778460000000  0.1137550000000 -0.1156120000000 1.0   2.94
Fe     4  0.1137550000000 -0.1156120000000 -0.3778460000000 1.0   2.94
Fe     4 -0.1156120000000 -0.3778460000000  0.1137550000000 1.0   2.94
Fe     4  0.1228660000000 -0.1710900000000  0.3325690000000 1.0  -2.85
Fe     4 -0.1710900000000  0.3325690000000  0.1228660000000 1.0  -2.85
Fe     4  0.3325690000000  0.1228660000000 -0.1710900000000 1.0  -2.85
Fe     4 -0.2591640000000 -0.2591640000000 -0.2591640000000 1.0  -1.30
Fe     4  0.4849260000000  0.4849260000000  0.4849260000000 1.0  -1.70
END
