TITL LFSO-Li4Fe3S2O3-200927-145831-cb64dd 0.1488 487.068147 -10620.86560977 16.1550 17.3340 24 (F222) n - 1
REM
REM Run started: Tue, 29 Sep 2020 06:07:43 +0100 in /lustre/scratch/uccabz1/launch_tmp/launcher_2020-09-27-13-58-30-206919
REM CASTEP 20.1 from code version af48c487+ pr-geom-scf-spinfix Tue Jun 2 15:39:59 2020 +0100
REM Functional Perdew Burke Ernzerhof Relativity Koelling-Harmon Dispersion off
REM Cut-off 340.0000 eV Grid scale 1.7500 Gmax 16.5316 1/A FBSC none
REM MP grid 3 3 2 Offset 0.000 0.000 0.000 No. kpts 6 Spacing 0.07
REM Total runtime: 97866.4 s
REM Overall efficiency: 98.9091 %
REM
REM
REM
REM compiler GCC version 4.9.2
REM options -cpp -iprefix /lustre/shared/ucl/apps/gcc/4.9.2/bin/../lib/gcc/x86_64-unknown-linux-gnu/4.9.2/ -mtune=corei7 -march=x86-64 -g -Og
REM COMMAND_LINE
REM seed -1130752953 1904991081 -1176867378 1406567651 -175108101 -1012201607 199507286 -621880352 285831843 -1138976427 -88154996 1769118216
REM
REM S 3|1.8|5|6|7|30:31:32(qc=5)
REM O 2|1.5|12|13|15|20:21(qc=5)
REM Li 1|1.3|8|9|10|10U:20(qc=5)
REM Fe 3|2.2|2.0|1.0|8|9|10|40:41:32(qc=5)
REM 
CELL 1.54180    6.81726    6.81726   12.21831  110.98646  110.98646   73.51364
LATT -1
SFAC Li O  S  Fe 
Li     1 -0.3894190000000 -0.3672350000000 -0.5174680000000 1.0  -0.07
Li     1 -0.1280490000000 -0.1502340000000 -0.5174680000000 1.0  -0.07
Li     1  0.3672350000000  0.3894190000000  0.5174680000000 1.0  -0.07
Li     1  0.1502340000000  0.1280490000000  0.5174680000000 1.0  -0.07
Li     1  0.1419500000000  0.3707760000000 -0.2305270000000 1.0  -0.01
Li     1 -0.3724760000000  0.3986970000000 -0.2305270000000 1.0  -0.01
Li     1 -0.3707760000000 -0.1419500000000  0.2305270000000 1.0  -0.01
Li     1 -0.3986970000000  0.3724760000000  0.2305270000000 1.0  -0.01
O      2 -0.1455800000000  0.2861800000000  0.2036810000000 1.0   0.19
O      2  0.3492610000000 -0.0824990000000  0.2036810000000 1.0   0.19
O      2 -0.2861800000000  0.1455800000000 -0.2036810000000 1.0   0.19
O      2  0.0824990000000 -0.3492610000000 -0.2036810000000 1.0   0.19
O      2  0.3278980000000  0.3278980000000 -0.3442040000000 1.0   0.05
O      2 -0.3278980000000 -0.3278980000000  0.3442040000000 1.0   0.05
S      3  0.3120400000000  0.4389600000000  0.3200290000000 1.0   0.01
S      3  0.0079890000000 -0.1189310000000  0.3200290000000 1.0   0.01
S      3 -0.4389600000000 -0.3120400000000 -0.3200290000000 1.0   0.01
S      3  0.1189310000000 -0.0079890000000 -0.3200290000000 1.0   0.01
Fe     4 -0.5429300000000  0.0527020000000 -0.2943260000000 1.0   2.27
Fe     4  0.2486040000000 -0.3470280000000 -0.2943260000000 1.0   2.27
Fe     4 -0.0527020000000  0.5429300000000  0.2943260000000 1.0   2.27
Fe     4  0.3470280000000 -0.2486040000000  0.2943260000000 1.0   2.27
Fe     4 -0.1167820000000 -0.1167820000000 -0.2335630000000 1.0   3.19
Fe     4  0.1167820000000  0.1167820000000  0.2335630000000 1.0   3.19
END
