TITL LFSO-Li2Fe2SO3-200913-083445-d53608 -0.0166 132.558578 -3.74175021E+003 0.546246E-03 0.706724E-02 8 (R3) n - 1
REM
REM Run started: Sun, 13 Sep 2020 10:23:37 +0100 in /lustre/scratch/uccabz1/launch_tmp/launcher_2020-09-13-07-34-43-667708
REM CASTEP 20.1 from code version af48c487+ pr-geom-scf-spinfix Tue Jun 2 15:39:59 2020 +0100
REM Functional Perdew Burke Ernzerhof Relativity Koelling-Harmon Dispersion off
REM Cut-off 340.0000 eV Grid scale 1.7500 Gmax 16.5316 1/A FBSC none
REM MP grid 4 4 3 Offset 0.000 0.000 0.000 No. kpts 24 Spacing 0.07
REM Total runtime: 7985.97 s
REM Overall efficiency: 95.2857 %
REM
REM
REM
REM compiler GCC version 4.9.2
REM options -cpp -iprefix /lustre/shared/ucl/apps/gcc/4.9.2/bin/../lib/gcc/x86_64-unknown-linux-gnu/4.9.2/ -mtune=corei7 -march=x86-64 -g -Og
REM COMMAND_LINE
REM seed -2014408533 -674433554 1012740986 1109250018 -587275699 -67645565 549689653 315526929 1219904513 -254914303 -234619996 1810925357
REM
REM S 3|1.8|5|6|7|30:31:32(qc=5)
REM O 2|1.5|12|13|15|20:21(qc=5)
REM Li 1|1.3|8|9|10|10U:20(qc=5)
REM Fe 3|2.2|2.0|1.0|8|9|10|40:41:32(qc=5)
REM 
CELL 1.54180    5.01323    5.01323    6.74312   68.17770   68.17770   60.00000
LATT -1
SFAC Li O  S  Fe 
Li     1  0.4126380000000  0.4126380000000 -0.2379130000000 1.0
Li     1  0.2515300000000  0.2515300000000  0.2454090000000 1.0
O      2 -0.5512020000000  0.2166990000000 -0.5091640000000 1.0
O      2  0.2166990000000 -0.1563320000000 -0.5091640000000 1.0
O      2 -0.1563320000000 -0.5512020000000 -0.5091640000000 1.0
S      3  0.0034140000000  0.0034140000000 -0.0102420000000 1.0
Fe     4 -0.4595570000000 -0.4595570000000  0.3786700000000 1.0
Fe     4  0.1209070000000  0.1209070000000 -0.3627220000000 1.0
END
