TITL LFSO-Li2Fe3SO3-200912-173632-c20c77 0.0133 261.808480 -9.21587163E+003 -0.152756 15.3872 18 (Cc) n - 1
REM
REM Run started: Sun, 13 Sep 2020 23:44:21 +0100 in /lustre/scratch/uccabz1/launch_tmp/launcher_2020-09-12-16-36-30-754165
REM CASTEP 20.1 from code version af48c487+ pr-geom-scf-spinfix Tue Jun 2 15:39:59 2020 +0100
REM Functional Perdew Burke Ernzerhof Relativity Koelling-Harmon Dispersion off
REM Cut-off 340.0000 eV Grid scale 1.7500 Gmax 16.5316 1/A FBSC none
REM MP grid 5 3 1 Offset 0.000 0.000 0.000 No. kpts 8 Spacing 0.07
REM Total runtime: 110353 s
REM Overall efficiency: 98.3846 %
REM
REM
REM
REM compiler GCC version 4.9.2
REM options -cpp -iprefix /lustre/shared/ucl/apps/gcc/4.9.2/bin/../lib/gcc/x86_64-unknown-linux-gnu/4.9.2/ -mtune=corei7 -march=x86-64 -g -Og
REM COMMAND_LINE
REM seed 1774214459 -1031873138 821712080 -1570397992 -41693841 -1943136797 1101423980 -846002526 -1052392909 -431164457 -1937179058 2023573228
REM
REM S 3|1.8|5|6|7|30:31:32(qc=5)
REM O 2|1.5|12|13|15|20:21(qc=5)
REM Li 1|1.3|8|9|10|10U:20(qc=5)
REM Fe 3|2.2|2.0|1.0|8|9|10|40:41:32(qc=5)
REM 
CELL 1.54180    2.99775    6.08670   14.82169   92.68413   90.00000  104.25597
LATT -1
SFAC Li O  S  Fe 
Li     1  0.1642670000000 -0.2963370000000 -0.4668000000000 1.0  -0.06
Li     1 -0.4606030000000 -0.2963370000000  0.0332000000000 1.0  -0.06
Li     1  0.6306500000000  0.6086810000000 -0.3176170000000 1.0   0.02
Li     1 -0.0219690000000  0.6086810000000  0.1823830000000 1.0   0.02
O      2 -0.1058780000000  0.3523930000000  0.0896620000000 1.0  -0.13
O      2 -0.5417290000000  0.3523930000000 -0.4103380000000 1.0  -0.13
O      2 -0.4685000000000 -0.4765890000000  0.2802280000000 1.0   0.27
O      2 -0.0080890000000 -0.4765890000000 -0.2197720000000 1.0   0.27
O      2 -0.2693950000000 -0.1628820000000 -0.4051310000000 1.0  -0.27
O      2  0.1065130000000 -0.1628820000000  0.0948690000000 1.0  -0.27
S      3 -0.1817390000000  0.0776020000000  0.3897260000000 1.0  -0.04
S      3  0.2593420000000  0.0776020000000 -0.1102740000000 1.0  -0.04
Fe     4  0.2883780000000  0.1376910000000  0.0893140000000 1.0  -3.34
Fe     4 -0.1506870000000  0.1376910000000 -0.4106860000000 1.0  -3.34
Fe     4 -0.5574550000000 -0.5651950000000 -0.1525570000000 1.0   2.88
Fe     4 -0.0077400000000 -0.5651950000000  0.3474430000000 1.0   2.88
Fe     4  0.4088860000000  0.2589600000000  0.4651850000000 1.0   0.60
Fe     4 -0.1499270000000  0.2589600000000 -0.0348150000000 1.0   0.60
END
