TITL LFSO-Li5FeSO3-200910-045756-ccf41c 0.0063 271.212544 -6.96237193E+003 7.99993 8.41309 20 (P-1) n - 1
REM
REM Run started: Thu, 10 Sep 2020 09:36:35 +0100 in /lustre/scratch/uccabz1/launch_tmp/launcher_2020-09-10-03-57-55-157573
REM CASTEP 20.1 from code version af48c487+ pr-geom-scf-spinfix Tue Jun 2 15:39:59 2020 +0100
REM Functional Perdew Burke Ernzerhof Relativity Koelling-Harmon Dispersion off
REM Cut-off 340.0000 eV Grid scale 1.7500 Gmax 16.5316 1/A FBSC none
REM MP grid 4 3 2 Offset 0.000 0.000 0.000 No. kpts 12 Spacing 0.07
REM Total runtime: 16849.8 s
REM Overall efficiency: 96.8889 %
REM
REM
REM
REM compiler GCC version 4.9.2
REM options -cpp -iprefix /lustre/shared/ucl/apps/gcc/4.9.2/bin/../lib/gcc/x86_64-unknown-linux-gnu/4.9.2/ -mtune=corei7 -march=x86-64 -g -Og
REM COMMAND_LINE
REM seed 32513800 2000437220 1553733455 -477104956 -581625102 749984388 -1172346460 1351449680 1281975642 1208958221 -1428412441 -793503046
REM
REM S 3|1.8|5|6|7|30:31:32(qc=5)
REM O 2|1.5|12|13|15|20:21(qc=5)
REM Li 1|1.3|8|9|10|10U:20(qc=5)
REM Fe 3|2.2|2.0|1.0|8|9|10|40:41:32(qc=5)
REM 
CELL 1.54180    5.39977    6.14260   10.90609   68.32953  111.11678  124.62957
LATT -1
SFAC Li O  S  Fe 
Li     1  0.0618750000000 -0.0311790000000 -0.2849180000000 1.0  -0.00
Li     1 -0.0618750000000  0.0311790000000  0.2849180000000 1.0  -0.00
Li     1 -0.2437490000000  0.3513190000000 -0.2172240000000 1.0  -0.04
Li     1  0.2437490000000 -0.3513190000000  0.2172240000000 1.0  -0.04
Li     1  0.5628330000000 -0.0394440000000  0.4136300000000 1.0  -0.00
Li     1 -0.5628330000000  0.0394440000000 -0.4136300000000 1.0  -0.00
Li     1 -0.6668790000000 -0.3074940000000 -0.1094350000000 1.0  -0.04
Li     1  0.6668790000000  0.3074940000000  0.1094350000000 1.0  -0.04
Li     1  0.2318840000000  0.3525600000000  0.4407490000000 1.0  -0.03
Li     1 -0.2318840000000 -0.3525600000000 -0.4407490000000 1.0  -0.03
O      2  0.1194190000000 -0.3485220000000 -0.2837050000000 1.0   0.14
O      2 -0.1194190000000  0.3485220000000  0.2837050000000 1.0   0.14
O      2 -0.4011350000000 -0.2981790000000  0.3566900000000 1.0   0.16
O      2  0.4011350000000  0.2981790000000 -0.3566900000000 1.0   0.16
O      2  0.3305880000000  0.1296310000000  0.3921840000000 1.0   0.30
O      2 -0.3305880000000 -0.1296310000000 -0.3921840000000 1.0   0.30
S      3 -0.2659220000000  0.0530520000000  0.0070590000000 1.0   0.00
S      3  0.2659220000000 -0.0530520000000 -0.0070590000000 1.0   0.00
Fe     4 -0.3338870000000 -0.5451320000000  0.3301850000000 1.0   3.51
Fe     4  0.3338870000000  0.5451320000000 -0.3301850000000 1.0   3.51
END
