TITL LFSO-Li6FeSO3-200909-230927-23f39c 0.0337 134.178461 -3.68102358E+003 3.96526 4.04568 11 (P-1) n - 1
REM
REM Run started: Thu, 10 Sep 2020 00:51:00 +0100 in /lustre/scratch/uccabz1/launch_tmp/launcher_2020-09-09-22-09-25-718107
REM CASTEP 20.1 from code version af48c487+ pr-geom-scf-spinfix Tue Jun 2 15:39:59 2020 +0100
REM Functional Perdew Burke Ernzerhof Relativity Koelling-Harmon Dispersion off
REM Cut-off 340.0000 eV Grid scale 1.7500 Gmax 16.5316 1/A FBSC none
REM MP grid 5 3 3 Offset 0.000 0.000 0.000 No. kpts 23 Spacing 0.07
REM Total runtime: 6887.9 s
REM Overall efficiency: 95.1818 %
REM
REM
REM
REM compiler GCC version 4.9.2
REM options -cpp -iprefix /lustre/shared/ucl/apps/gcc/4.9.2/bin/../lib/gcc/x86_64-unknown-linux-gnu/4.9.2/ -mtune=corei7 -march=x86-64 -g -Og
REM COMMAND_LINE
REM seed -2094311610 1762004969 1997458882 1454294485 2101644964 1898100187 -711870801 -2026044986 1702687888 556948740 1594247486 -853461101
REM
REM S 3|1.8|5|6|7|30:31:32(qc=5)
REM O 2|1.5|12|13|15|20:21(qc=5)
REM Li 1|1.3|8|9|10|10U:20(qc=5)
REM Fe 3|2.2|2.0|1.0|8|9|10|40:41:32(qc=5)
REM 
CELL 1.54180    3.95560    5.52744    6.62667   93.68609   70.87478  101.42479
LATT -1
SFAC Li O  S  Fe 
Li     1  0.1311980000000 -0.3897980000000  0.2596190000000 1.0  -0.03
Li     1 -0.1311980000000  0.3897980000000 -0.2596190000000 1.0  -0.03
Li     1 -0.5238270000000 -0.2799620000000 -0.1848330000000 1.0  -0.03
Li     1  0.5238270000000  0.2799620000000  0.1848330000000 1.0  -0.03
Li     1 -0.2682640000000 -0.1815210000000  0.0756070000000 1.0  -0.01
Li     1  0.2682640000000  0.1815210000000 -0.0756070000000 1.0  -0.01
O      2 -0.1583550000000  0.0294050000000 -0.2042940000000 1.0   0.16
O      2  0.1583550000000 -0.0294050000000  0.2042940000000 1.0   0.16
O      2  0.5000000000000  0.5000000000000  0.0000000000000 1.0   0.01
S      3 -0.5000000000000 -0.5000000000000  0.5000000000000 1.0   0.18
Fe     4  0.0000000000000  0.0000000000000 -0.5000000000000 1.0   3.59
END
