TITL LFSO-Li6FeS3O-200910-000048-9713f1 -0.0339 169.553927 -3.41146846E+003 3.99980 4.11806 11 (Pmmm) n - 1
REM
REM Run started: Thu, 10 Sep 2020 01:17:45 +0100 in /lustre/scratch/uccabz1/launch_tmp/launcher_2020-09-09-23-00-46-673455
REM CASTEP 20.1 from code version af48c487+ pr-geom-scf-spinfix Tue Jun 2 15:39:59 2020 +0100
REM Functional Perdew Burke Ernzerhof Relativity Koelling-Harmon Dispersion off
REM Cut-off 340.0000 eV Grid scale 1.7500 Gmax 16.5316 1/A FBSC none
REM MP grid 5 4 2 Offset 0.000 0.000 0.000 No. kpts 10 Spacing 0.07
REM Total runtime: 5037.23 s
REM Overall efficiency: 85.375 %
REM
REM
REM
REM compiler GCC version 4.9.2
REM options -cpp -iprefix /lustre/shared/ucl/apps/gcc/4.9.2/bin/../lib/gcc/x86_64-unknown-linux-gnu/4.9.2/ -mtune=corei7 -march=x86-64 -g -Og
REM COMMAND_LINE
REM seed -888306967 1725573342 1122334993 -382993785 2044451920 -919092144 -1574326795 477928902 1385110266 -980751403 1066133953 643592745
REM
REM S 3|1.8|5|6|7|30:31:32(qc=5)
REM O 2|1.5|12|13|15|20:21(qc=5)
REM Li 1|1.3|8|9|10|10U:20(qc=5)
REM Fe 3|2.2|2.0|1.0|8|9|10|40:41:32(qc=5)
REM 
CELL 1.54180    5.66968    6.97890    7.45706   90.00000   90.00000  144.92568
LATT -1
SFAC Li O  S  Fe 
Li     1 -0.2368330000000 -0.0004480000000  0.3323970000000 1.0   0.00
Li     1  0.2368330000000  0.0004480000000  0.3323970000000 1.0   0.00
Li     1  0.2368330000000  0.0004480000000 -0.3323970000000 1.0   0.00
Li     1 -0.2368330000000 -0.0004480000000 -0.3323970000000 1.0   0.00
Li     1  0.5000000000000 -0.5000000000000 -0.1917550000000 1.0  -0.04
Li     1 -0.5000000000000  0.5000000000000  0.1917550000000 1.0  -0.04
O      2  0.0000000000000  0.0000000000000  0.5000000000000 1.0   0.02
S      3  0.0000000000000  0.5000000000000 -0.2906950000000 1.0   0.13
S      3  0.0000000000000 -0.5000000000000  0.2906950000000 1.0   0.13
S      3  0.0000000000000  0.0000000000000  0.0000000000000 1.0   0.18
Fe     4  0.0000000000000 -0.5000000000000  0.0000000000000 1.0   3.60
END
