TITL LFSO-LiFe3S2O3-200909-165014-0bfc3a 0.0269 129.967315 -4.70925200E+003 -2.91440 4.26704 9 (F222) n - 1
REM
REM Run started: Wed, 09 Sep 2020 18:58:54 +0100 in /lustre/scratch/uccabz1/launch_tmp/launcher_2020-09-09-15-50-11-050587
REM CASTEP 20.1 from code version af48c487+ pr-geom-scf-spinfix Tue Jun 2 15:39:59 2020 +0100
REM Functional Perdew Burke Ernzerhof Relativity Koelling-Harmon Dispersion off
REM Cut-off 340.0000 eV Grid scale 1.7500 Gmax 16.5316 1/A FBSC none
REM MP grid 4 4 3 Offset 0.000 0.000 0.000 No. kpts 16 Spacing 0.07
REM Total runtime: 8568.69 s
REM Overall efficiency: 96.8333 %
REM
REM
REM
REM compiler GCC version 4.9.2
REM options -cpp -iprefix /lustre/shared/ucl/apps/gcc/4.9.2/bin/../lib/gcc/x86_64-unknown-linux-gnu/4.9.2/ -mtune=corei7 -march=x86-64 -g -Og
REM COMMAND_LINE
REM seed 1320867510 709170249 769264686 -1301644345 -1615835905 -813071786 813259283 -1115617153 11397941 1169935587 384075305 2112395023
REM
REM S 3|1.8|5|6|7|30:31:32(qc=5)
REM O 2|1.5|12|13|15|20:21(qc=5)
REM Li 1|1.3|8|9|10|10U:20(qc=5)
REM Fe 3|2.2|2.0|1.0|8|9|10|40:41:32(qc=5)
REM 
CELL 1.54180    4.72320    4.72320    7.11576  114.83679  114.83679   74.59659
LATT -1
SFAC Li O  S  Fe 
Li     1  0.5000000000000  0.5000000000000  0.0000000000000 1.0  -0.02
O      2 -0.1040210000000  0.3959790000000 -0.2080420000000 1.0  -0.24
O      2 -0.3959790000000  0.1040210000000  0.2080420000000 1.0  -0.24
O      2 -0.0000000000000  0.0000000000000  0.0000000000000 1.0  -0.02
S      3  0.3949650000000 -0.1050350000000 -0.5000000000000 1.0   0.00
S      3  0.1050350000000 -0.3949650000000  0.5000000000000 1.0   0.00
Fe     4  0.1410900000000  0.1410900000000 -0.7178210000000 1.0   0.30
Fe     4 -0.1410900000000 -0.1410900000000  0.7178210000000 1.0   0.30
Fe     4 -0.2500000000000  0.2500000000000  0.5000000000000 1.0  -3.01
END
