TITL LFSO-Li3Fe3S5O-201002-050718-ec34ed -0.0395 535.656621 -1.02954412E+004 15.8905 16.6263 24 (P1) n - 1
REM
REM Run started: Sat, 03 Oct 2020 04:22:24 +0100 in /scratch/scratch/mmm0366/launch_tmp/launcher_2020-10-02-04-07-16-363029
REM CASTEP 19.11| from code version Version unavailable
REM Functional Perdew Burke Ernzerhof Relativity Koelling-Harmon Dispersion off
REM Cut-off 340.0000 eV Grid scale 1.7500 Gmax 16.5316 1/A FBSC none
REM MP grid 3 2 2 Offset 0.000 0.000 0.000 No. kpts 3 Spacing 0.07
REM Total runtime: 87382.5 s
REM Overall efficiency: 81.8333 %
REM
REM
REM
REM compiler GCC version 4.9.2
REM options -cpp -iprefix /scratch/UCL/applications/gcc/4.9.2/bin/../lib/gcc/x86_64-unknown-linux-gnu/4.9.2/ -mtune=corei7 -march=x86-64 -g -O2
REM COMMAND_LINE
REM seed 553160724 222874604 -2036792109 1811406639 25213732 201578905 1724977278 -1432711063 1574697455 1719162801 -77067046 -572452514
REM
REM S 3|1.8|5|6|7|30:31:32(qc=5)
REM O 2|1.5|12|13|15|20:21(qc=5)
REM Li 1|1.3|8|9|10|10U:20(qc=5)
REM Fe 3|2.2|2.0|1.0|8|9|10|40:41:32(qc=5)
REM 
CELL 1.54180    6.66981   10.58241    7.65481   90.00000   97.51469   90.00000
LATT -1
SFAC Li O  S  Fe 
Li     1 -0.3752110000000 -0.0923120000000  0.2855360000000 1.0   0.06
Li     1  0.3752110000000 -0.0923120000000 -0.2855360000000 1.0   0.06
Li     1 -0.2421430000000  0.1904770000000  0.0259840000000 1.0   0.03
Li     1  0.2421430000000  0.1904770000000 -0.0259840000000 1.0   0.03
Li     1 -0.5668880000000 -0.4580670000000  0.2512370000000 1.0   0.02
Li     1  0.5668880000000 -0.4580670000000 -0.2512370000000 1.0   0.02
O      2  0.2622330000000 -0.3259010000000  0.2222100000000 1.0   0.35
O      2 -0.2622330000000 -0.3259010000000 -0.2222100000000 1.0   0.35
S      3 -0.2817590000000  0.3517840000000 -0.4302780000000 1.0   0.16
S      3  0.2817590000000  0.3517840000000  0.4302780000000 1.0   0.16
S      3  0.2171420000000 -0.2931460000000  0.6488080000000 1.0   0.08
S      3 -0.2171420000000 -0.2931460000000 -0.6488080000000 1.0   0.08
S      3 -0.1589520000000  0.1019610000000  0.3048240000000 1.0   0.12
S      3  0.1589520000000  0.1019610000000 -0.3048240000000 1.0   0.12
S      3  0.3636470000000  0.0692470000000  0.2203580000000 1.0   0.13
S      3 -0.3636470000000  0.0692470000000 -0.2203580000000 1.0   0.13
S      3 -0.3878300000000  0.3746080000000  0.1157620000000 1.0  -0.04
S      3  0.3878300000000  0.3746080000000 -0.1157620000000 1.0  -0.04
Fe     4 -0.4556310000000  0.2420220000000  0.3433250000000 1.0   1.58
Fe     4  0.4556310000000  0.2420220000000 -0.3433250000000 1.0   1.58
Fe     4  0.1065800000000 -0.2917300000000  0.3713260000000 1.0   2.46
Fe     4 -0.1065800000000 -0.2917300000000 -0.3713260000000 1.0   2.46
Fe     4  0.1716300000000  0.1516920000000  0.4083050000000 1.0   2.99
Fe     4 -0.1716300000000  0.1516920000000 -0.4083050000000 1.0   2.99
END
