TITL LFSO-Li3Fe3S5O-200928-205547-d8e420 -0.0517 167.483403 -5.14718893E+003 0.160806E-04 0.796148E-04 12 (R3) n - 1
REM
REM Run started: Mon, 28 Sep 2020 23:32:26 +0100 in /lustre/scratch/uccabz1/launch_tmp/launcher_2020-09-28-19-55-45-523323
REM CASTEP 20.1 from code version af48c487+ pr-geom-scf-spinfix Tue Jun 2 15:39:59 2020 +0100
REM Functional Perdew Burke Ernzerhof Relativity Koelling-Harmon Dispersion off
REM Cut-off 340.0000 eV Grid scale 1.7500 Gmax 16.5316 1/A FBSC none
REM MP grid 4 4 4 Offset 0.000 0.000 0.000 No. kpts 12 Spacing 0.07
REM Total runtime: 9484.73 s
REM Overall efficiency: 95.625 %
REM
REM
REM
REM compiler GCC version 4.9.2
REM options -cpp -iprefix /lustre/shared/ucl/apps/gcc/4.9.2/bin/../lib/gcc/x86_64-unknown-linux-gnu/4.9.2/ -mtune=corei7 -march=x86-64 -g -Og
REM COMMAND_LINE
REM seed -1400367719 -103623529 -629934921 106571852 757148610 1353616311 1375266523 463154975 -312144655 -884558223 1707119787 531755736
REM
REM S 3|1.8|5|6|7|30:31:32(qc=5)
REM O 2|1.5|12|13|15|20:21(qc=5)
REM Li 1|1.3|8|9|10|10U:20(qc=5)
REM Fe 3|2.2|2.0|1.0|8|9|10|40:41:32(qc=5)
REM 
CELL 1.54180    6.95702    6.95702    6.95702   47.49768   47.49768   47.49768
LATT -1
SFAC Li O  S  Fe 
Li     1 -0.0264650000000 -0.3781320000000  0.1908830000000 1.0
Li     1 -0.3781320000000  0.1908830000000 -0.0264650000000 1.0
Li     1  0.1908830000000 -0.0264650000000 -0.3781320000000 1.0
O      2 -0.0083140000000 -0.0083140000000 -0.0083140000000 1.0
S      3 -0.1941290000000  0.2638900000000  0.4474480000000 1.0
S      3  0.2638900000000  0.4474480000000 -0.1941290000000 1.0
S      3  0.4474480000000 -0.1941290000000  0.2638900000000 1.0
S      3  0.3529270000000  0.3529270000000  0.3529270000000 1.0
S      3 -0.2884700000000 -0.2884700000000 -0.2884700000000 1.0
Fe     4 -0.1979850000000  0.0657400000000  0.3219880000000 1.0
Fe     4  0.0657400000000  0.3219880000000 -0.1979850000000 1.0
Fe     4  0.3219880000000 -0.1979850000000  0.0657400000000 1.0
END
