TITL LFSO-Li2Fe3SO3-200912-174931-bc7f8c -0.0625 169.012060 -4.60117548E+003 7.56585 7.94156 9 (Pmm2) n - 1
REM
REM Run started: Sat, 12 Sep 2020 19:18:26 +0100 in /lustre/scratch/uccabz1/launch_tmp/launcher_2020-09-12-16-49-30-382294
REM CASTEP 20.1 from code version af48c487+ pr-geom-scf-spinfix Tue Jun 2 15:39:59 2020 +0100
REM Functional Perdew Burke Ernzerhof Relativity Koelling-Harmon Dispersion off
REM Cut-off 340.0000 eV Grid scale 1.7500 Gmax 16.5316 1/A FBSC none
REM MP grid 4 3 2 Offset 0.000 0.000 0.000 No. kpts 4 Spacing 0.07
REM Total runtime: 5638.02 s
REM Overall efficiency: 94.4286 %
REM
REM
REM
REM compiler GCC version 4.9.2
REM options -cpp -iprefix /lustre/shared/ucl/apps/gcc/4.9.2/bin/../lib/gcc/x86_64-unknown-linux-gnu/4.9.2/ -mtune=corei7 -march=x86-64 -g -Og
REM COMMAND_LINE
REM seed -1779708578 -213049531 -9563334 1403994540 478407404 -1108434433 337758313 1829845700 -2051921007 -1043184632 -1059522340 1146223930
REM
REM S 3|1.8|5|6|7|30:31:32(qc=5)
REM O 2|1.5|12|13|15|20:21(qc=5)
REM Li 1|1.3|8|9|10|10U:20(qc=5)
REM Fe 3|2.2|2.0|1.0|8|9|10|40:41:32(qc=5)
REM 
CELL 1.54180    4.22670    4.95362    8.07224   90.00000   90.00000   90.00000
LATT -1
SFAC Li O  S  Fe 
Li     1  0.0000000000000  0.0137960000000  0.3290310000000 1.0  -0.06
Li     1  0.0000000000000  0.0137960000000 -0.3290310000000 1.0  -0.06
O      2 -0.5000000000000 -0.1882760000000  0.1785520000000 1.0   0.24
O      2  0.5000000000000 -0.1882760000000 -0.1785520000000 1.0   0.24
O      2 -0.5000000000000  0.0630260000000  0.5000000000000 1.0   1.02
S      3 -0.5000000000000  0.2950620000000 -0.0000000000000 1.0   0.11
Fe     4  0.2459740000000 -0.1446670000000 -0.0000000000000 1.0   1.63
Fe     4 -0.2459740000000 -0.1446670000000 -0.0000000000000 1.0   1.63
Fe     4  0.0000000000000  0.3794330000000 -0.0000000000000 1.0   2.80
END
