TITL LFSO-Li2Fe2SO2-200913-000628-8b9c14 -0.0075 97.061245 -3.30509834E+003 7.99197 8.07995 7 (P3m1) n - 1
REM
REM Run started: Sun, 13 Sep 2020 00:55:03 +0100 in /lustre/scratch/uccabz1/launch_tmp/launcher_2020-09-12-23-06-26-664387
REM CASTEP 20.1 from code version af48c487+ pr-geom-scf-spinfix Tue Jun 2 15:39:59 2020 +0100
REM Functional Perdew Burke Ernzerhof Relativity Koelling-Harmon Dispersion off
REM Cut-off 340.0000 eV Grid scale 1.7500 Gmax 16.5316 1/A FBSC none
REM MP grid 5 5 2 Offset 0.000 0.000 0.000 No. kpts 7 Spacing 0.07
REM Total runtime: 1097.17 s
REM Overall efficiency: 66.8333 %
REM
REM
REM
REM compiler GCC version 4.9.2
REM options -cpp -iprefix /lustre/shared/ucl/apps/gcc/4.9.2/bin/../lib/gcc/x86_64-unknown-linux-gnu/4.9.2/ -mtune=corei7 -march=x86-64 -g -Og
REM COMMAND_LINE
REM seed -1449954229 -1563196765 1146799179 1429524273 1930428689 -611117664 1264123874 1652951682 -1841294744 1695967679 687403367 1474358103
REM
REM S 3|1.8|5|6|7|30:31:32(qc=5)
REM O 2|1.5|12|13|15|20:21(qc=5)
REM Li 1|1.3|8|9|10|10U:20(qc=5)
REM Fe 3|2.2|2.0|1.0|8|9|10|40:41:32(qc=5)
REM 
CELL 1.54180    3.59726    3.59726    8.66108   90.00000   90.00000  120.00000
LATT -1
SFAC Li O  S  Fe 
Li     1  0.0000000000000 -0.0000000000000  0.1521110000000 1.0  -0.03
Li     1 -0.3333330000000  0.3333330000000  0.4705180000000 1.0  -0.05
O      2 -0.3333330000000  0.3333330000000 -0.3191550000000 1.0   0.24
O      2  0.0000000000000 -0.0000000000000 -0.0836880000000 1.0   0.38
S      3 -0.3333330000000  0.3333330000000  0.2172280000000 1.0   0.27
Fe     4 -0.3333330000000  0.3333330000000 -0.0537320000000 1.0   3.65
Fe     4  0.3333330000000 -0.3333330000000 -0.2801780000000 1.0   3.54
END
