TITL LFSO-Li2Fe4S2O3-200912-075454-d83187 -0.0283 359.412248 -1.15479931E+004 18.0143 18.6000 22 (R3) n - 1
REM
REM Run started: Mon, 14 Sep 2020 01:35:06 +0100 in /lustre/scratch/uccabz1/launch_tmp/launcher_2020-09-12-06-54-52-349532
REM CASTEP 20.1 from code version af48c487+ pr-geom-scf-spinfix Tue Jun 2 15:39:59 2020 +0100
REM Functional Perdew Burke Ernzerhof Relativity Koelling-Harmon Dispersion off
REM Cut-off 340.0000 eV Grid scale 1.7500 Gmax 16.5316 1/A FBSC none
REM MP grid 3 3 3 Offset 0.000 0.000 0.000 No. kpts 6 Spacing 0.07
REM Total runtime: 155430 s
REM Overall efficiency: 98.8182 %
REM
REM
REM
REM compiler GCC version 4.9.2
REM options -cpp -iprefix /lustre/shared/ucl/apps/gcc/4.9.2/bin/../lib/gcc/x86_64-unknown-linux-gnu/4.9.2/ -mtune=corei7 -march=x86-64 -g -Og
REM COMMAND_LINE
REM seed -1941858559 -1377135917 316573626 1619279078 -939967513 945766714 -80933429 -1148053550 1554263028 978587405 59293768 878401353
REM
REM S 3|1.8|5|6|7|30:31:32(qc=5)
REM O 2|1.5|12|13|15|20:21(qc=5)
REM Li 1|1.3|8|9|10|10U:20(qc=5)
REM Fe 3|2.2|2.0|1.0|8|9|10|40:41:32(qc=5)
REM 
CELL 1.54180    7.34343    7.34343    7.34343   74.49108   74.49108   74.49108
LATT -1
SFAC Li O  S  Fe 
Li     1 -0.3587830000000  0.2903580000000 -0.1169290000000 1.0  -0.06
Li     1  0.2903580000000 -0.1169290000000 -0.3587830000000 1.0  -0.06
Li     1 -0.1169290000000 -0.3587830000000  0.2903580000000 1.0  -0.06
Li     1 -0.0175730000000 -0.0175730000000 -0.0175730000000 1.0  -0.01
O      2  0.3472140000000  0.1066110000000  0.4635910000000 1.0   0.15
O      2  0.1066110000000  0.4635910000000  0.3472140000000 1.0   0.15
O      2  0.4635910000000  0.3472140000000  0.1066110000000 1.0   0.15
O      2  0.0447250000000  0.0484680000000 -0.2862000000000 1.0   0.13
O      2  0.0484680000000 -0.2862000000000  0.0447250000000 1.0   0.13
O      2 -0.2862000000000  0.0447250000000  0.0484680000000 1.0   0.13
S      3 -0.2439920000000  0.2703830000000 -0.5147900000000 1.0   0.12
S      3  0.2703830000000 -0.5147900000000 -0.2439920000000 1.0   0.12
S      3 -0.5147900000000 -0.2439920000000  0.2703830000000 1.0   0.12
S      3 -0.2909950000000 -0.2909950000000 -0.2909950000000 1.0   0.08
Fe     4  0.0882390000000  0.2272310000000  0.4800330000000 1.0   1.15
Fe     4  0.2272310000000  0.4800330000000  0.0882390000000 1.0   1.15
Fe     4  0.4800330000000  0.0882390000000  0.2272310000000 1.0   1.15
Fe     4 -0.1389000000000 -0.0376810000000  0.6513550000000 1.0   2.66
Fe     4 -0.0376810000000  0.6513550000000 -0.1389000000000 1.0   2.66
Fe     4  0.6513550000000 -0.1389000000000 -0.0376810000000 1.0   2.66
Fe     4 -0.4613170000000 -0.4613170000000 -0.4613170000000 1.0   2.96
Fe     4  0.1827630000000  0.1827630000000  0.1827630000000 1.0   2.55
END
