TITL LFSO-Li3Fe3SO5-200927-050138-5376ef -0.0117 131.145200 -5.68444386E+003 8.00071 8.22161 12 (Cm) n - 1
REM
REM Run started: Sun, 27 Sep 2020 08:57:40 +0100 in /lustre/scratch/uccabz1/launch_tmp/launcher_2020-09-27-05-21-54-519273
REM CASTEP 20.1 from code version af48c487+ pr-geom-scf-spinfix Tue Jun 2 15:39:59 2020 +0100
REM Functional Perdew Burke Ernzerhof Relativity Koelling-Harmon Dispersion off
REM Cut-off 340.0000 eV Grid scale 1.7500 Gmax 16.5316 1/A FBSC none
REM MP grid 4 4 3 Offset 0.000 0.000 0.000 No. kpts 24 Spacing 0.07
REM Total runtime: 11962.8 s
REM Overall efficiency: 96.5 %
REM
REM
REM
REM compiler GCC version 4.9.2
REM options -cpp -iprefix /lustre/shared/ucl/apps/gcc/4.9.2/bin/../lib/gcc/x86_64-unknown-linux-gnu/4.9.2/ -mtune=corei7 -march=x86-64 -g -Og
REM COMMAND_LINE
REM seed -1878022687 916174095 738823699 1669598808 -1999152910 -325834195 2035271263 1178437614 -271494289 298357869 -171232690 2130697474
REM
REM S 3|1.8|5|6|7|30:31:32(qc=5)
REM O 2|1.5|12|13|15|20:21(qc=5)
REM Li 1|1.3|8|9|10|10U:20(qc=5)
REM Fe 3|2.2|2.0|1.0|8|9|10|40:41:32(qc=5)
REM 
CELL 1.54180    5.04755    5.04755    6.43598  121.56648   93.26321  105.06622
LATT -1
SFAC Li O  S  Fe 
Li     1  0.1357080000000  0.2808430000000 -0.0441510000000 1.0  -0.01
Li     1 -0.3249940000000 -0.1798590000000 -0.0441510000000 1.0  -0.01
Li     1 -0.9835830000000 -0.4050020000000 -0.3885850000000 1.0   0.02
O      2  0.7067500000000  0.0735400000000  0.3198840000000 1.0   0.12
O      2  0.2463440000000 -0.3868660000000  0.3198840000000 1.0   0.12
O      2 -0.4173210000000  0.6057100000000 -0.3863330000000 1.0   0.15
O      2 -0.9920430000000  0.0309870000000 -0.3863330000000 1.0   0.15
O      2  0.1374230000000 -0.1096980000000  0.0277250000000 1.0   0.17
S      3 -0.3502210000000  0.3321560000000 -0.0180650000000 1.0   0.06
Fe     4  0.4360670000000  0.2617230000000  0.2852000000000 1.0   2.40
Fe     4  0.0234770000000 -0.1508670000000  0.2852000000000 1.0   2.40
Fe     4 -0.3808220000000 -0.1055670000000 -0.4863890000000 1.0   2.43
END
