TITL LFSO-Li4Fe2SO4-200910-131819-bf12be -0.0400 274.913638 -9.16634138E+003 12.0117 12.3734 22 (C2/c) n - 1
REM
REM Run started: Fri, 11 Sep 2020 02:09:40 +0100 in /lustre/scratch/uccabz1/launch_tmp/launcher_2020-09-10-12-18-17-503550
REM CASTEP 20.1 from code version af48c487+ pr-geom-scf-spinfix Tue Jun 2 15:39:59 2020 +0100
REM Functional Perdew Burke Ernzerhof Relativity Koelling-Harmon Dispersion off
REM Cut-off 340.0000 eV Grid scale 1.7500 Gmax 16.5316 1/A FBSC none
REM MP grid 4 4 2 Offset 0.000 0.000 0.000 No. kpts 10 Spacing 0.07
REM Total runtime: 51880.3 s
REM Overall efficiency: 85.9231 %
REM
REM
REM
REM compiler GCC version 4.9.2
REM options -cpp -iprefix /lustre/shared/ucl/apps/gcc/4.9.2/bin/../lib/gcc/x86_64-unknown-linux-gnu/4.9.2/ -mtune=corei7 -march=x86-64 -g -Og
REM COMMAND_LINE
REM seed 301447149 -28245645 43315728 1204383799 1859782312 -1295531565 200701787 1906127080 -49755305 -838093572 734855432 443264533
REM
REM S 3|1.8|5|6|7|30:31:32(qc=5)
REM O 2|1.5|12|13|15|20:21(qc=5)
REM Li 1|1.3|8|9|10|10U:20(qc=5)
REM Fe 3|2.2|2.0|1.0|8|9|10|40:41:32(qc=5)
REM 
CELL 1.54180    6.65823    6.65823   10.51246  123.98918  123.98918   48.27315
LATT -1
SFAC Li O  S  Fe 
Li     1  0.0003020000000 -0.3803430000000 -0.5519100000000 1.0   0.01
Li     1 -0.1196570000000  0.4996980000000  0.0519100000000 1.0   0.01
Li     1 -0.0003020000000  0.3803430000000  0.5519100000000 1.0   0.01
Li     1  0.1196570000000 -0.4996980000000 -0.0519100000000 1.0   0.01
Li     1  0.0730700000000 -0.1062710000000  0.3234410000000 1.0  -0.02
Li     1 -0.3937290000000 -0.5730700000000  0.1765590000000 1.0  -0.02
Li     1 -0.0730700000000  0.1062710000000 -0.3234410000000 1.0  -0.02
Li     1  0.3937290000000  0.5730700000000 -0.1765590000000 1.0  -0.02
O      2  0.2005940000000 -0.2414910000000 -0.0282810000000 1.0   0.15
O      2 -0.2585090000000  0.2994060000000 -0.4717190000000 1.0   0.15
O      2 -0.2005940000000  0.2414910000000  0.0282810000000 1.0   0.15
O      2  0.2585090000000 -0.2994060000000  0.4717190000000 1.0   0.15
O      2 -0.2548770000000 -0.4855380000000 -0.1659670000000 1.0   0.20
O      2 -0.0144620000000 -0.2451230000000 -0.3340330000000 1.0   0.20
O      2  0.2548770000000  0.4855380000000  0.1659670000000 1.0   0.20
O      2  0.0144620000000  0.2451230000000  0.3340330000000 1.0   0.20
S      3 -0.3878930000000 -0.1121070000000  0.2500000000000 1.0   0.10
S      3  0.3878930000000  0.1121070000000 -0.2500000000000 1.0   0.10
Fe     4  0.1488930000000  0.0535350000000  0.1653670000000 1.0   2.62
Fe     4  0.4464650000000  0.3511070000000  0.3346330000000 1.0   2.62
Fe     4 -0.1488930000000 -0.0535350000000 -0.1653670000000 1.0   2.62
Fe     4 -0.4464650000000 -0.3511070000000 -0.3346330000000 1.0   2.62
END
