TITL LFSO-Li4Fe3SO4-200928-151252-a6c8cb -0.0130 388.171412 -1.08904691E+004 -20.4008 21.0663 24 (P21) n - 1
REM
REM Run started: Wed, 30 Sep 2020 01:17:32 +0100 in /lustre/scratch/uccabz1/launch_tmp/launcher_2020-09-29-23-31-27-786836
REM CASTEP 20.1 from code version af48c487+ pr-geom-scf-spinfix Tue Jun 2 15:39:59 2020 +0100
REM Functional Perdew Burke Ernzerhof Relativity Koelling-Harmon Dispersion off
REM Cut-off 340.0000 eV Grid scale 1.7500 Gmax 16.5316 1/A FBSC none
REM MP grid 5 3 1 Offset 0.000 0.000 0.000 No. kpts 8 Spacing 0.07
REM Total runtime: 108597 s
REM Overall efficiency: 98.7273 %
REM
REM
REM
REM compiler GCC version 4.9.2
REM options -cpp -iprefix /scratch/UCL/applications/gcc/4.9.2/bin/../lib/gcc/x86_64-unknown-linux-gnu/4.9.2/ -mtune=corei7 -march=x86-64 -g -O2
REM COMMAND_LINE
REM seed -1757812617 -982879778 -187590338 -809817570 578774645 -2032552180 557256601 2077495537 1391007908 978447735 -92485635 2028063274
REM
REM S 3|1.8|5|6|7|30:31:32(qc=5)
REM O 2|1.5|12|13|15|20:21(qc=5)
REM Li 1|1.3|8|9|10|10U:20(qc=5)
REM Fe 3|2.2|2.0|1.0|8|9|10|40:41:32(qc=5)
REM 
CELL 1.54180    3.47439    5.98229   21.03926   90.00000   90.00000  117.41946
LATT -1
SFAC Li O  S  Fe 
Li     1 -0.3399860000000 -0.1469820000000 -0.5321010000000 1.0   0.02
Li     1  0.3399860000000  0.1469820000000 -0.0321010000000 1.0   0.02
Li     1  0.1809890000000 -0.3228680000000  0.2096960000000 1.0   0.06
Li     1 -0.1809890000000  0.3228680000000 -0.2903040000000 1.0   0.06
Li     1  0.2791330000000  0.0596400000000  0.3966970000000 1.0  -0.00
Li     1 -0.2791330000000 -0.0596400000000 -0.1033030000000 1.0  -0.00
Li     1 -0.0411170000000 -0.4963790000000 -0.1459870000000 1.0  -0.02
Li     1  0.0411170000000  0.4963790000000  0.3540130000000 1.0  -0.02
O      2 -0.5734230000000 -0.0062160000000 -0.3147780000000 1.0  -0.25
O      2  0.5734230000000  0.0062160000000  0.1852220000000 1.0  -0.25
O      2  0.1346680000000 -0.1882700000000 -0.0758520000000 1.0  -0.19
O      2 -0.1346680000000  0.1882700000000  0.4241480000000 1.0  -0.19
O      2 -0.6958290000000 -0.3654540000000 -0.4577540000000 1.0  -0.17
O      2  0.6958290000000  0.3654540000000  0.0422460000000 1.0  -0.17
O      2 -0.0392950000000  0.2938180000000 -0.0739800000000 1.0  -0.22
O      2  0.0392950000000 -0.2938180000000  0.4260200000000 1.0  -0.22
S      3  0.4675910000000  0.5051460000000 -0.2258530000000 1.0  -0.15
S      3 -0.4675910000000 -0.5051460000000  0.2741470000000 1.0  -0.15
Fe     4 -0.8005530000000  0.1866040000000  0.2034100000000 1.0  -3.40
Fe     4  0.8005530000000 -0.1866040000000 -0.2965900000000 1.0  -3.40
Fe     4 -0.3219400000000  0.2117960000000  0.1160500000000 1.0  -3.01
Fe     4  0.3219400000000 -0.2117960000000 -0.3839500000000 1.0  -3.01
Fe     4 -0.0004750000000 -0.4542830000000 -0.0245980000000 1.0  -2.87
Fe     4  0.0004750000000  0.4542830000000 -0.5245980000000 1.0  -2.87
END
