TITL LFSO-Li4Fe2S3O2-200911-050542-3f1768 -0.0051 161.500013 -4.31183019E+003 7.66366 7.85260 11 (P222) n - 1
REM
REM Run started: Fri, 11 Sep 2020 05:34:43 +0100 in /lustre/scratch/uccabz1/launch_tmp/launcher_2020-09-11-04-05-40-492309
REM CASTEP 20.1 from code version af48c487+ pr-geom-scf-spinfix Tue Jun 2 15:39:59 2020 +0100
REM Functional Perdew Burke Ernzerhof Relativity Koelling-Harmon Dispersion off
REM Cut-off 340.0000 eV Grid scale 1.7500 Gmax 16.5316 1/A FBSC none
REM MP grid 5 3 2 Offset 0.000 0.000 0.000 No. kpts 6 Spacing 0.07
REM Total runtime: 2170.09 s
REM Overall efficiency: 93.5 %
REM
REM
REM
REM compiler GCC version 4.9.2
REM options -cpp -iprefix /lustre/shared/ucl/apps/gcc/4.9.2/bin/../lib/gcc/x86_64-unknown-linux-gnu/4.9.2/ -mtune=corei7 -march=x86-64 -g -Og
REM COMMAND_LINE
REM seed 1871300674 -466283159 1297453109 793079137 -1613104614 60160708 77018555 -731585234 -2012066064 577912650 -788461107 809688604
REM
REM S 3|1.8|5|6|7|30:31:32(qc=5)
REM O 2|1.5|12|13|15|20:21(qc=5)
REM Li 1|1.3|8|9|10|10U:20(qc=5)
REM Fe 3|2.2|2.0|1.0|8|9|10|40:41:32(qc=5)
REM 
CELL 1.54180    3.32423    6.07470    7.99756   90.00000   90.00000   90.00000
LATT -1
SFAC Li O  S  Fe 
Li     1 -0.4225990000000  0.2618130000000 -0.2037880000000 1.0  -0.01
Li     1  0.4225990000000  0.2618130000000  0.2037880000000 1.0  -0.01
Li     1  0.4225990000000 -0.2618130000000 -0.2037880000000 1.0  -0.01
Li     1 -0.4225990000000 -0.2618130000000  0.2037880000000 1.0  -0.01
O      2 -0.5000000000000  0.5000000000000 -0.3411510000000 1.0   0.28
O      2  0.5000000000000 -0.5000000000000  0.3411510000000 1.0   0.28
S      3  0.0000000000000  0.0000000000000 -0.3169960000000 1.0   0.09
S      3  0.0000000000000  0.0000000000000  0.3169960000000 1.0   0.09
S      3  0.0000000000000  0.0000000000000  0.0000000000000 1.0   0.02
Fe     4 -0.0000000000000  0.3107620000000  0.5000000000000 1.0   3.46
Fe     4  0.0000000000000 -0.3107620000000  0.5000000000000 1.0   3.46
END
