TITL LFSO-Li2Fe2S3O-200913-034426-19e3d9 0.0730 440.004964 -1.04309506E+004 11.6835 12.6258 24 (P32) n - 1
REM
REM Run started: Mon, 14 Sep 2020 00:17:08 +0100 in /lustre/scratch/uccabz1/launch_tmp/launcher_2020-09-13-22-10-00-596518
REM CASTEP 20.1 from code version af48c487+ pr-geom-scf-spinfix Tue Jun 2 15:39:59 2020 +0100
REM Functional Perdew Burke Ernzerhof Relativity Koelling-Harmon Dispersion off
REM Cut-off 340.0000 eV Grid scale 1.7500 Gmax 16.5316 1/A FBSC none
REM MP grid 5 2 2 Offset 0.000 0.000 0.000 No. kpts 10 Spacing 0.07
REM Total runtime: 74232.3 s
REM Overall efficiency: 87.3333 %
REM
REM
REM
REM compiler GCC version 4.9.2
REM options -cpp -iprefix /lustre/shared/ucl/apps/gcc/4.9.2/bin/../lib/gcc/x86_64-unknown-linux-gnu/4.9.2/ -mtune=corei7 -march=x86-64 -g -Og
REM COMMAND_LINE
REM seed 410367638 -153328278 1077876366 688051866 -69225997 -1659601170 -1032583032 -1051954591 1472976506 1951791542 1344253792 196867970
REM
REM S 3|1.8|5|6|7|30:31:32(qc=5)
REM O 2|1.5|12|13|15|20:21(qc=5)
REM Li 1|1.3|8|9|10|10U:20(qc=5)
REM Fe 3|2.2|2.0|1.0|8|9|10|40:41:32(qc=5)
REM 
CELL 1.54180    3.49595   12.05537   12.05537  120.00000   90.00000   90.00000
LATT -1
SFAC Li O  S  Fe 
Li     1 -0.0208640000000  0.0271910000000  0.3421100000000 1.0  -0.00
Li     1 -0.3541970000000 -0.3421100000000 -0.3149190000000 1.0  -0.00
Li     1  0.3124690000000  0.3149190000000 -0.0271910000000 1.0  -0.00
Li     1 -0.3757970000000 -0.2991700000000  0.2103370000000 1.0  -0.01
Li     1  0.2908700000000 -0.2103370000000  0.4904930000000 1.0  -0.01
Li     1 -0.0424630000000 -0.4904930000000  0.2991700000000 1.0  -0.01
O      2  0.2896110000000 -0.0438430000000 -0.3445270000000 1.0   0.13
O      2 -0.0437220000000  0.3445270000000  0.3006840000000 1.0   0.13
O      2 -0.3770560000000 -0.3006840000000  0.0438430000000 1.0   0.13
S      3  0.1264940000000  0.5359120000000  0.1142180000000 1.0   0.15
S      3 -0.2068390000000 -0.1142180000000  0.4216940000000 1.0   0.15
S      3  0.4598280000000 -0.4216940000000 -0.5359120000000 1.0   0.15
S      3  0.1000310000000 -0.0643380000000  0.0970850000000 1.0  -0.02
S      3 -0.2333020000000 -0.0970850000000 -0.1614240000000 1.0  -0.02
S      3  0.4333650000000  0.1614240000000  0.0643380000000 1.0  -0.02
S      3  0.4657930000000  0.1662490000000  0.3275040000000 1.0   0.04
S      3  0.1324600000000 -0.3275040000000 -0.1612550000000 1.0   0.04
S      3 -0.2008740000000  0.1612550000000 -0.1662490000000 1.0   0.04
Fe     4 -0.2087340000000 -0.0107740000000 -0.3639840000000 1.0   2.48
Fe     4 -0.5420680000000  0.3639840000000  0.3532100000000 1.0   2.48
Fe     4  0.1245990000000 -0.3532100000000  0.0107740000000 1.0   2.48
Fe     4 -0.0265180000000  0.1490200000000  0.1827940000000 1.0   1.12
Fe     4 -0.3598520000000 -0.1827940000000 -0.0337730000000 1.0   1.12
Fe     4  0.3068150000000  0.0337730000000 -0.1490200000000 1.0   1.12
END
