TITL LFSO-Li5FeS2O2-200920-224224-ddacb1 -0.0048 367.980075 -6.69317783E+003 -6.11637 6.78260 20 (C2) n - 1
REM
REM Run started: Mon, 21 Sep 2020 13:56:18 +0100 in /lustre/scratch/uccabz1/launch_tmp/launcher_2020-09-20-21-42-23-126813
REM CASTEP 20.1 from code version af48c487+ pr-geom-scf-spinfix Tue Jun 2 15:39:59 2020 +0100
REM Functional Perdew Burke Ernzerhof Relativity Koelling-Harmon Dispersion off
REM Cut-off 340.0000 eV Grid scale 1.7500 Gmax 16.5316 1/A FBSC none
REM MP grid 4 4 2 Offset 0.000 0.000 0.000 No. kpts 16 Spacing 0.07
REM Total runtime: 65044.3 s
REM Overall efficiency: 98.6364 %
REM
REM
REM
REM compiler GCC version 4.9.2
REM options -cpp -iprefix /lustre/shared/ucl/apps/gcc/4.9.2/bin/../lib/gcc/x86_64-unknown-linux-gnu/4.9.2/ -mtune=corei7 -march=x86-64 -g -Og
REM COMMAND_LINE
REM seed 709700520 -167838693 -461825463 2143977356 330790428 -1050798315 1156624723 -402957710 608750278 2014858247 -1620550917 -401950134
REM
REM S 3|1.8|5|6|7|30:31:32(qc=5)
REM O 2|1.5|12|13|15|20:21(qc=5)
REM Li 1|1.3|8|9|10|10U:20(qc=5)
REM Fe 3|2.2|2.0|1.0|8|9|10|40:41:32(qc=5)
REM 
CELL 1.54180    5.90707    7.09360   13.64702  121.41979   77.50094   65.39460
LATT -1
SFAC Li O  S  Fe 
Li     1 -0.2992920000000  0.0438980000000  0.4350080000000 1.0   0.02
Li     1 -0.8203860000000 -0.0438980000000 -0.4350080000000 1.0   0.02
Li     1  0.1593880000000 -0.2531980000000 -0.0144350000000 1.0   0.01
Li     1 -0.1082450000000  0.2531980000000  0.0144350000000 1.0   0.01
Li     1 -0.8381760000000  0.0172470000000  0.4247530000000 1.0  -0.00
Li     1  0.6038240000000 -0.0172470000000 -0.4247530000000 1.0  -0.00
Li     1 -0.2645750000000  0.5522760000000  0.2844370000000 1.0   0.00
Li     1 -0.4278620000000 -0.5522760000000 -0.2844370000000 1.0   0.00
Li     1  0.4802750000000 -0.0127760000000 -0.1012850000000 1.0  -0.03
Li     1  0.3662140000000  0.0127760000000  0.1012850000000 1.0  -0.03
O      2  0.5184780000000 -0.3082020000000 -0.1019770000000 1.0  -0.19
O      2  0.1083000000000  0.3082020000000  0.1019770000000 1.0  -0.19
O      2 -0.1550330000000  0.0918590000000 -0.4501960000000 1.0  -0.02
O      2 -0.5133700000000 -0.0918590000000  0.4501960000000 1.0  -0.02
S      3  0.0279730000000 -0.2983370000000 -0.1875460000000 1.0  -0.15
S      3  0.5420900000000  0.2983370000000  0.1875460000000 1.0  -0.15
S      3  0.1315480000000 -0.1073520000000  0.2128880000000 1.0  -0.10
S      3  0.2370840000000  0.1073520000000 -0.2128880000000 1.0  -0.10
Fe     4 -0.0995370000000  0.4853340000000 -0.1600030000000 1.0  -2.60
Fe     4  0.2257940000000 -0.4853340000000  0.1600030000000 1.0  -2.60
END
