TITL LFSO-LiFeSO-200909-044810-0afe92 0.0776 827.543210 -10831.36329019 -18.4474 19.6683 24 (R3) n - 1
REM
REM Run started: Thu, 10 Sep 2020 10:35:57 +0100 in /lustre/scratch/uccabz1/launch_tmp/launcher_2020-09-09-03-48-08-762661
REM CASTEP 20.1 from code version af48c487+ pr-geom-scf-spinfix Tue Jun 2 15:39:59 2020 +0100
REM Functional Perdew Burke Ernzerhof Relativity Koelling-Harmon Dispersion off
REM Cut-off 340.0000 eV Grid scale 1.7500 Gmax 16.5316 1/A FBSC none
REM MP grid 2 2 2 Offset 0.000 0.000 0.000 No. kpts 2 Spacing 0.07
REM Total runtime: 107254 s
REM Overall efficiency: 91.2727 %
REM
REM
REM
REM compiler GCC version 4.9.2
REM options -cpp -iprefix /lustre/shared/ucl/apps/gcc/4.9.2/bin/../lib/gcc/x86_64-unknown-linux-gnu/4.9.2/ -mtune=corei7 -march=x86-64 -g -Og
REM COMMAND_LINE
REM seed -49864782 798268476 1412672026 1021548782 -1977334295 330520841 -1668600077 774898382 1831735025 -1208161598 -1592321459 1535172998
REM
REM S 3|1.8|5|6|7|30:31:32(qc=5)
REM O 2|1.5|12|13|15|20:21(qc=5)
REM Li 1|1.3|8|9|10|10U:20(qc=5)
REM Fe 3|2.2|2.0|1.0|8|9|10|40:41:32(qc=5)
REM 
CELL 1.54180   14.95824   14.95824   14.95824   31.84313   31.84313   31.84313
LATT -1
SFAC Li O  S  Fe 
Li     1  0.5270480000000  0.2845680000000  0.1159500000000 1.0  -0.01
Li     1  0.1159500000000  0.5270480000000  0.2845680000000 1.0  -0.01
Li     1  0.2845680000000  0.1159500000000  0.5270480000000 1.0  -0.01
Li     1  0.3160240000000 -0.3339050000000  0.1064240000000 1.0  -0.01
Li     1  0.1064240000000  0.3160240000000 -0.3339050000000 1.0  -0.01
Li     1 -0.3339050000000  0.1064240000000  0.3160240000000 1.0  -0.01
O      2  0.3384480000000 -0.4561340000000  0.0791670000000 1.0  -0.29
O      2  0.0791670000000  0.3384480000000 -0.4561340000000 1.0  -0.29
O      2 -0.4561340000000  0.0791670000000  0.3384480000000 1.0  -0.29
O      2  1.0026180000000 -0.4721040000000 -0.3341090000000 1.0  -0.29
O      2  0.6658910000000  0.0026180000000 -0.4721040000000 1.0  -0.29
O      2  0.5278960000000 -0.3341090000000  0.0026180000000 1.0  -0.29
S      3  0.3231840000000 -0.0599310000000 -0.2087140000000 1.0  -0.20
S      3 -0.2087140000000  0.3231840000000 -0.0599310000000 1.0  -0.20
S      3 -0.0599310000000 -0.2087140000000  0.3231840000000 1.0  -0.20
S      3  0.3915570000000 -0.1655170000000 -0.4082070000000 1.0  -0.18
S      3 -0.4082070000000  0.3915570000000 -0.1655170000000 1.0  -0.18
S      3 -0.1655170000000 -0.4082070000000  0.3915570000000 1.0  -0.18
Fe     4  0.7747580000000 -0.4703130000000 -0.1239870000000 1.0  -2.81
Fe     4  0.8760130000000 -0.2252420000000 -0.4703130000000 1.0  -2.81
Fe     4  0.5296870000000 -0.1239870000000 -0.2252420000000 1.0  -2.81
Fe     4 -0.1690290000000  0.4222510000000 -0.3396390000000 1.0  -2.84
Fe     4 -0.3396390000000 -0.1690290000000  0.4222510000000 1.0  -2.84
Fe     4  0.4222510000000 -0.3396390000000 -0.1690290000000 1.0  -2.84
END
