TITL LFSO-Li3FeSO2-200911-154939-3b5060 0.0594 249.202918 -7.93087138E+003 9.73565 10.0908 21 (P32) n - 1
REM
REM Run started: Fri, 11 Sep 2020 20:07:26 +0100 in /lustre/scratch/uccabz1/launch_tmp/launcher_2020-09-11-14-49-38-051464
REM CASTEP 20.1 from code version af48c487+ pr-geom-scf-spinfix Tue Jun 2 15:39:59 2020 +0100
REM Functional Perdew Burke Ernzerhof Relativity Koelling-Harmon Dispersion off
REM Cut-off 340.0000 eV Grid scale 1.7500 Gmax 16.5316 1/A FBSC none
REM MP grid 3 3 3 Offset 0.000 0.000 0.000 No. kpts 8 Spacing 0.07
REM Total runtime: 17831.4 s
REM Overall efficiency: 92.8889 %
REM
REM
REM
REM compiler GCC version 4.9.2
REM options -cpp -iprefix /lustre/shared/ucl/apps/gcc/4.9.2/bin/../lib/gcc/x86_64-unknown-linux-gnu/4.9.2/ -mtune=corei7 -march=x86-64 -g -Og
REM COMMAND_LINE
REM seed -2086654700 509292811 69656468 -753795556 -401950134 1965106926 -23734836 732988888 -1410990078 -815975204 1461157367 567564819
REM
REM S 3|1.8|5|6|7|30:31:32(qc=5)
REM O 2|1.5|12|13|15|20:21(qc=5)
REM Li 1|1.3|8|9|10|10U:20(qc=5)
REM Fe 3|2.2|2.0|1.0|8|9|10|40:41:32(qc=5)
REM 
CELL 1.54180    7.01467    7.01467    5.84800   90.00000   90.00000  120.00000
LATT -1
SFAC Li O  S  Fe 
Li     1  0.1972770000000 -0.2969420000000  0.1306880000000 1.0  -0.01
Li     1  0.2969420000000  0.4942190000000 -0.2026450000000 1.0  -0.01
Li     1 -0.4942190000000 -0.1972770000000 -0.5359790000000 1.0  -0.01
Li     1  0.2747610000000  0.0739960000000  0.0637070000000 1.0  -0.02
Li     1 -0.0739960000000  0.2007650000000 -0.2696260000000 1.0  -0.02
Li     1 -0.2007650000000 -0.2747610000000  0.3970400000000 1.0  -0.02
Li     1 -0.3439940000000  0.1372770000000  0.1929730000000 1.0  -0.01
Li     1 -0.1372770000000 -0.4812710000000 -0.1403600000000 1.0  -0.01
Li     1  0.4812710000000  0.3439940000000  0.5263070000000 1.0  -0.01
O      2 -0.1832370000000 -0.0300820000000  0.2103320000000 1.0   0.15
O      2  0.0300820000000 -0.1531560000000 -0.1230020000000 1.0   0.15
O      2  0.1531560000000  0.1832370000000 -0.4563350000000 1.0   0.15
O      2 -0.3853000000000 -0.3555870000000 -0.3291980000000 1.0   0.17
O      2  0.3555870000000 -0.0297130000000  0.3374690000000 1.0   0.17
O      2  0.0297130000000  0.3853000000000  0.0041360000000 1.0   0.17
S      3 -0.0036430000000  0.5193580000000  0.4840570000000 1.0   0.10
S      3 -0.5193580000000 -0.5230010000000  0.1507230000000 1.0   0.10
S      3  0.5230010000000  0.0036430000000 -0.1826100000000 1.0   0.10
Fe     4 -0.2752130000000 -0.2001480000000 -0.0619180000000 1.0   2.86
Fe     4  0.2001480000000 -0.0750650000000 -0.3952520000000 1.0   2.86
Fe     4  0.0750650000000  0.2752130000000  0.2714150000000 1.0   2.86
END
