TITL LFSO-Li4Fe3SO4-200928-143724-11c143 0.0161 157.950990 -5.44441152E+003 10.0271 10.3356 12 (R3) n - 1
REM
REM Run started: Mon, 28 Sep 2020 15:24:44 +0100 in /lustre/scratch/uccabz1/launch_tmp/launcher_2020-09-28-13-37-23-368355
REM CASTEP 20.1 from code version af48c487+ pr-geom-scf-spinfix Tue Jun 2 15:39:59 2020 +0100
REM Functional Perdew Burke Ernzerhof Relativity Koelling-Harmon Dispersion off
REM Cut-off 340.0000 eV Grid scale 1.7500 Gmax 16.5316 1/A FBSC none
REM MP grid 3 3 3 Offset 0.000 0.000 0.000 No. kpts 6 Spacing 0.07
REM Total runtime: 1675.45 s
REM Overall efficiency: 91 %
REM
REM
REM
REM compiler GCC version 4.9.2
REM options -cpp -iprefix /lustre/shared/ucl/apps/gcc/4.9.2/bin/../lib/gcc/x86_64-unknown-linux-gnu/4.9.2/ -mtune=corei7 -march=x86-64 -g -Og
REM COMMAND_LINE
REM seed 927714942 -1048075726 693722461 112501285 -1845879500 1654366821 -1868407715 824873905 1528535085 -837756548 -416529207 -1010719400
REM
REM S 3|1.8|5|6|7|30:31:32(qc=5)
REM O 2|1.5|12|13|15|20:21(qc=5)
REM Li 1|1.3|8|9|10|10U:20(qc=5)
REM Fe 3|2.2|2.0|1.0|8|9|10|40:41:32(qc=5)
REM 
CELL 1.54180    5.59681    5.59681    5.59681   73.88854   73.88854   73.88854
LATT -1
SFAC Li O  S  Fe 
Li     1 -0.4115480000000 -0.0159020000000  0.0918720000000 1.0  -0.09
Li     1  0.0918720000000 -0.4115480000000 -0.0159020000000 1.0  -0.09
Li     1 -0.0159020000000  0.0918720000000 -0.4115480000000 1.0  -0.09
Li     1  0.0395280000000  0.0395280000000  0.0395280000000 1.0   0.05
O      2 -0.2481420000000  0.1590010000000  0.2699070000000 1.0   0.17
O      2  0.2699070000000 -0.2481420000000  0.1590010000000 1.0   0.17
O      2  0.1590010000000  0.2699070000000 -0.2481420000000 1.0   0.17
O      2 -0.1490650000000 -0.1490650000000 -0.1490650000000 1.0   0.15
S      3 -0.4171710000000 -0.4171710000000 -0.4171710000000 1.0   0.16
Fe     4  0.5045520000000  0.1942620000000 -0.4198490000000 1.0   3.13
Fe     4 -0.4198490000000  0.5045520000000  0.1942620000000 1.0   3.13
Fe     4  0.1942620000000 -0.4198490000000  0.5045520000000 1.0   3.13
END
