TITL LFSO-Li4Fe2S4O-200910-163403-7a8d4e 0.0131 437.283032 -8.35953854E+003 -14.1753 14.6859 22 (P3) n - 1
REM
REM Run started: Fri, 11 Sep 2020 05:15:44 +0100 in /lustre/scratch/uccabz1/launch_tmp/launcher_2020-09-10-15-34-01-770291
REM CASTEP 20.1 from code version af48c487+ pr-geom-scf-spinfix Tue Jun 2 15:39:59 2020 +0100
REM Functional Perdew Burke Ernzerhof Relativity Koelling-Harmon Dispersion off
REM Cut-off 340.0000 eV Grid scale 1.7500 Gmax 16.5316 1/A FBSC none
REM MP grid 3 3 2 Offset 0.000 0.000 0.000 No. kpts 5 Spacing 0.07
REM Total runtime: 50022.9 s
REM Overall efficiency: 75 %
REM
REM
REM
REM compiler GCC version 4.9.2
REM options -cpp -iprefix /lustre/shared/ucl/apps/gcc/4.9.2/bin/../lib/gcc/x86_64-unknown-linux-gnu/4.9.2/ -mtune=corei7 -march=x86-64 -g -Og
REM COMMAND_LINE
REM seed -1192511288 10288602 -1811078867 332587600 -874749274 -1786697040 1962231088 -624364356 -152319977 -1677931003 1070312505 -1497887538
REM
REM S 3|1.8|5|6|7|30:31:32(qc=5)
REM O 2|1.5|12|13|15|20:21(qc=5)
REM Li 1|1.3|8|9|10|10U:20(qc=5)
REM Fe 3|2.2|2.0|1.0|8|9|10|40:41:32(qc=5)
REM 
CELL 1.54180    6.37126    6.37126   12.43887   90.00000   90.00000  120.00000
LATT -1
SFAC Li O  S  Fe 
Li     1 -0.3331600000000 -0.3918030000000  0.2894600000000 1.0   0.01
Li     1 -0.0586430000000  0.3331600000000  0.2894600000000 1.0   0.01
Li     1  0.3918030000000  0.0586430000000  0.2894600000000 1.0   0.01
Li     1 -0.4274020000000  0.0490140000000 -0.1661490000000 1.0   0.01
Li     1  0.4764160000000  0.4274020000000 -0.1661490000000 1.0   0.01
Li     1 -0.0490140000000 -0.4764160000000 -0.1661490000000 1.0   0.01
Li     1  0.3333330000000 -0.3333330000000 -0.4322060000000 1.0  -0.01
Li     1 -0.3333330000000  0.3333330000000  0.5070190000000 1.0  -0.02
O      2 -0.3333330000000  0.3333330000000  0.1943690000000 1.0  -0.35
O      2 -0.3333330000000  0.3333330000000 -0.0403780000000 1.0  -0.38
S      3  0.2530360000000 -0.0806860000000  0.0849700000000 1.0  -0.09
S      3 -0.3337220000000 -0.2530360000000  0.0849700000000 1.0  -0.09
S      3  0.0806860000000  0.3337220000000  0.0849700000000 1.0  -0.09
S      3  0.0262210000000 -0.3188330000000  0.4114970000000 1.0  -0.13
S      3 -0.3450540000000 -0.0262210000000  0.4114970000000 1.0  -0.13
S      3  0.3188330000000  0.3450540000000  0.4114970000000 1.0  -0.13
S      3  0.3333330000000 -0.3333330000000 -0.2419500000000 1.0  -0.34
S      3 -0.3333330000000  0.3333330000000 -0.3051500000000 1.0  -0.52
Fe     4 -0.3320700000000  0.1001870000000  0.0786190000000 1.0  -2.99
Fe     4  0.4322570000000  0.3320700000000  0.0786190000000 1.0  -2.99
Fe     4 -0.1001870000000 -0.4322570000000  0.0786190000000 1.0  -2.99
Fe     4  0.0000000000000 -0.0000000000000  0.4393320000000 1.0  -3.00
END
