TITL LFSO-Li6FeS2O2-200920-204907-470c6c 0.0603 392.767236 -7.09138287E+003 -8.07130 8.68937 22 (P3) n - 1
REM
REM Run started: Mon, 21 Sep 2020 20:58:24 +0100 in /lustre/scratch/uccabz1/launch_tmp/launcher_2020-09-21-17-23-45-129096
REM CASTEP 20.1 from code version af48c487+ pr-geom-scf-spinfix Tue Jun 2 15:39:59 2020 +0100
REM Functional Perdew Burke Ernzerhof Relativity Koelling-Harmon Dispersion off
REM Cut-off 340.0000 eV Grid scale 1.7500 Gmax 16.5316 1/A FBSC none
REM MP grid 3 3 2 Offset 0.000 0.000 0.000 No. kpts 5 Spacing 0.07
REM Total runtime: 66362.2 s
REM Overall efficiency: 78.3636 %
REM
REM
REM
REM compiler GCC version 4.9.2
REM options -cpp -iprefix /lustre/shared/ucl/apps/gcc/4.9.2/bin/../lib/gcc/x86_64-unknown-linux-gnu/4.9.2/ -mtune=corei7 -march=x86-64 -g -Og
REM COMMAND_LINE
REM seed -1613824121 -805590954 832703226 977771247 -1729246149 -1079465065 -1134345550 2027004119 1343799282 -558212182 -1592368885 407602941
REM
REM S 3|1.8|5|6|7|30:31:32(qc=5)
REM O 2|1.5|12|13|15|20:21(qc=5)
REM Li 1|1.3|8|9|10|10U:20(qc=5)
REM Fe 3|2.2|2.0|1.0|8|9|10|40:41:32(qc=5)
REM 
CELL 1.54180    6.53802    6.53802   10.60992   90.00000   90.00000  120.00000
LATT -1
SFAC Li O  S  Fe 
Li     1 -0.1629610000000  0.1357840000000 -0.2728210000000 1.0   0.08
Li     1  0.2987460000000  0.1629610000000 -0.2728210000000 1.0   0.08
Li     1 -0.1357840000000 -0.2987460000000 -0.2728210000000 1.0   0.08
Li     1  0.1475040000000  0.3363170000000 -0.0571850000000 1.0  -0.01
Li     1  0.1888130000000 -0.1475040000000 -0.0571850000000 1.0  -0.01
Li     1 -0.3363170000000 -0.1888130000000 -0.0571850000000 1.0  -0.01
Li     1 -0.4594530000000 -0.1023730000000  0.1708580000000 1.0   0.00
Li     1  0.3570810000000  0.4594530000000  0.1708580000000 1.0   0.00
Li     1  0.1023730000000 -0.3570810000000  0.1708580000000 1.0   0.00
Li     1  0.6565630000000  0.0173320000000  0.4383590000000 1.0   0.01
Li     1 -0.6392300000000 -0.6565630000000  0.4383590000000 1.0   0.01
Li     1 -0.0173320000000  0.6392300000000  0.4383590000000 1.0   0.01
O      2 -0.1509340000000 -0.3371230000000 -0.1060290000000 1.0  -0.22
O      2 -0.1861880000000  0.1509340000000 -0.1060290000000 1.0  -0.22
O      2  0.3371230000000  0.1861880000000 -0.1060290000000 1.0  -0.22
O      2  0.3333340000000 -0.3333340000000  0.0483820000000 1.0  -0.01
S      3 -0.3376040000000 -0.3358500000000  0.3189700000000 1.0  -0.21
S      3  0.0017550000000  0.3376040000000  0.3189700000000 1.0  -0.21
S      3  0.3358500000000 -0.0017550000000  0.3189700000000 1.0  -0.21
S      3  0.0000000000000 -0.0000000000000 -0.4237970000000 1.0  -0.08
Fe     4 -0.3333330000000  0.3333330000000 -0.0985360000000 1.0  -3.60
Fe     4  0.0000000000000 -0.0000000000000  0.3413630000000 1.0  -3.33
END
