TITL LFSO-Li4Fe2S3O-200911-043219-38627b 0.0229 307.896220 -7.75129226E+003 0.406676E-02 0.885146E-02 20 (R3) n - 1
REM
REM Run started: Fri, 11 Sep 2020 10:08:23 +0100 in /lustre/scratch/uccabz1/launch_tmp/launcher_2020-09-11-03-32-16-959383
REM CASTEP 20.1 from code version af48c487+ pr-geom-scf-spinfix Tue Jun 2 15:39:59 2020 +0100
REM Functional Perdew Burke Ernzerhof Relativity Koelling-Harmon Dispersion off
REM Cut-off 340.0000 eV Grid scale 1.7500 Gmax 16.5316 1/A FBSC none
REM MP grid 3 3 2 Offset 0.000 0.000 0.000 No. kpts 7 Spacing 0.07
REM Total runtime: 20323.1 s
REM Overall efficiency: 83.5714 %
REM
REM
REM
REM compiler GCC version 4.9.2
REM options -cpp -iprefix /lustre/shared/ucl/apps/gcc/4.9.2/bin/../lib/gcc/x86_64-unknown-linux-gnu/4.9.2/ -mtune=corei7 -march=x86-64 -g -Og
REM COMMAND_LINE
REM seed 1893519752 1759312326 -1294932293 -1669929620 -2041830465 715649091 -1902221143 -691396565 1714370393 -1520411944 -864184406 -1226318920
REM
REM S 3|1.8|5|6|7|30:31:32(qc=5)
REM O 2|1.5|12|13|15|20:21(qc=5)
REM Li 1|1.3|8|9|10|10U:20(qc=5)
REM Fe 3|2.2|2.0|1.0|8|9|10|40:41:32(qc=5)
REM 
CELL 1.54180    6.27864    6.27864    9.71991   71.15687   71.15687   60.00000
LATT -1
SFAC Li O  S  Fe 
Li     1  0.4468440000000 -0.3094290000000 -0.0828240000000 1.0
Li     1 -0.0545910000000  0.4468440000000 -0.0828240000000 1.0
Li     1 -0.3094290000000 -0.0545910000000 -0.0828240000000 1.0
Li     1  0.2667640000000 -0.1377910000000  0.1447930000000 1.0
Li     1 -0.2737660000000  0.2667640000000  0.1447930000000 1.0
Li     1 -0.1377910000000 -0.2737660000000  0.1447930000000 1.0
Li     1 -0.1282790000000 -0.1282790000000  0.3848360000000 1.0
Li     1 -0.4482540000000 -0.4482540000000  0.3447630000000 1.0
O      2 -0.3747660000000 -0.3747660000000  0.1242980000000 1.0
O      2 -0.0627570000000 -0.0627570000000  0.1882700000000 1.0
S      3 -0.4563810000000 -0.2462640000000 -0.4592950000000 1.0
S      3  0.1619400000000 -0.4563810000000 -0.4592950000000 1.0
S      3 -0.2462640000000  0.1619400000000 -0.4592950000000 1.0
S      3 -0.2789780000000  0.3264650000000 -0.1650850000000 1.0
S      3  0.1175980000000 -0.2789780000000 -0.1650850000000 1.0
S      3  0.3264650000000  0.1175980000000 -0.1650850000000 1.0
Fe     4  0.3591410000000  0.1271400000000 -0.3985010000000 1.0
Fe     4 -0.0877800000000  0.3591410000000 -0.3985010000000 1.0
Fe     4  0.1271400000000 -0.0877800000000 -0.3985010000000 1.0
Fe     4  0.4336180000000  0.4336180000000 -0.3008540000000 1.0
END
