TITL LFSO-Li4FeSO2-200910-080307-eb91fe 0.1552 188.987931 -5.68623726E+003 6.13380 6.37179 16 (C2) n - 1
REM
REM Run started: Thu, 10 Sep 2020 17:47:56 +0100 in /lustre/scratch/uccabz1/launch_tmp/launcher_2020-09-10-07-03-06-319374
REM CASTEP 20.1 from code version af48c487+ pr-geom-scf-spinfix Tue Jun 2 15:39:59 2020 +0100
REM Functional Perdew Burke Ernzerhof Relativity Koelling-Harmon Dispersion off
REM Cut-off 340.0000 eV Grid scale 1.7500 Gmax 16.5316 1/A FBSC none
REM MP grid 4 6 3 Offset 0.000 0.000 0.000 No. kpts 36 Spacing 0.07
REM Total runtime: 41584.7 s
REM Overall efficiency: 95.8333 %
REM
REM
REM
REM compiler GCC version 4.9.2
REM options -cpp -iprefix /lustre/shared/ucl/apps/gcc/4.9.2/bin/../lib/gcc/x86_64-unknown-linux-gnu/4.9.2/ -mtune=corei7 -march=x86-64 -g -Og
REM COMMAND_LINE
REM seed 540041667 1327377485 -1562964785 1448675955 172122496 633752481 -620873706 -119867969 -1075883790 -1566636450 956467843 -104239971
REM
REM S 3|1.8|5|6|7|30:31:32(qc=5)
REM O 2|1.5|12|13|15|20:21(qc=5)
REM Li 1|1.3|8|9|10|10U:20(qc=5)
REM Fe 3|2.2|2.0|1.0|8|9|10|40:41:32(qc=5)
REM 
CELL 1.54180    5.29404    5.95234   13.16985  140.46847   90.00000  116.40433
LATT -1
SFAC Li O  S  Fe 
Li     1  0.0131450000000 -0.7029490000000  0.3446840000000 1.0   0.02
Li     1 -0.2839060000000  0.7029490000000 -0.3446840000000 1.0   0.02
Li     1  0.5315720000000 -0.3190160000000  0.2925490000000 1.0  -0.03
Li     1 -0.1494110000000  0.3190160000000 -0.2925490000000 1.0  -0.03
Li     1  0.0983270000000 -0.1452730000000  0.3071090000000 1.0   0.01
Li     1  0.2436000000000  0.1452730000000 -0.3071090000000 1.0   0.01
Li     1  0.2056400000000  0.2181480000000 -0.0544590000000 1.0  -0.05
Li     1 -0.0125070000000 -0.2181480000000  0.0544590000000 1.0  -0.05
O      2 -0.3184210000000 -0.3782450000000 -0.2193070000000 1.0   0.18
O      2  0.0598250000000  0.3782450000000  0.2193070000000 1.0   0.18
O      2  0.1096490000000  0.4206030000000 -0.1181700000000 1.0   0.14
O      2 -0.3109540000000 -0.4206030000000  0.1181700000000 1.0   0.14
S      3 -0.4159670000000  0.4031280000000  0.3707160000000 1.0   0.06
S      3  0.1809050000000 -0.4031280000000 -0.3707160000000 1.0   0.06
Fe     4 -0.3989710000000  0.0150780000000 -0.0867500000000 1.0   2.74
Fe     4 -0.4140490000000 -0.0150780000000  0.0867500000000 1.0   2.74
END
