TITL LFSO-Li5FeS3O-200910-094848-37100c 0.2866 413.045671 -6.42500035E+003 6.51783 6.99330 20 (Imm2) n - 1
REM
REM Run started: Fri, 11 Sep 2020 08:55:51 +0100 in /lustre/scratch/uccabz1/launch_tmp/launcher_2020-09-10-08-48-46-736597
REM CASTEP 20.1 from code version af48c487+ pr-geom-scf-spinfix Tue Jun 2 15:39:59 2020 +0100
REM Functional Perdew Burke Ernzerhof Relativity Koelling-Harmon Dispersion off
REM Cut-off 340.0000 eV Grid scale 1.7500 Gmax 16.5316 1/A FBSC none
REM MP grid 2 3 3 Offset 0.000 0.000 0.000 No. kpts 9 Spacing 0.07
REM Total runtime: 94100 s
REM Overall efficiency: 98.5833 %
REM
REM
REM
REM compiler GCC version 4.9.2
REM options -cpp -iprefix /lustre/shared/ucl/apps/gcc/4.9.2/bin/../lib/gcc/x86_64-unknown-linux-gnu/4.9.2/ -mtune=corei7 -march=x86-64 -g -Og
REM COMMAND_LINE
REM seed 713421040 -2078049315 -1565285101 -1081331079 -1473746220 940325349 1716773782 208615979 756886002 -589415923 -837248588 1821074700
REM
REM S 3|1.8|5|6|7|30:31:32(qc=5)
REM O 2|1.5|12|13|15|20:21(qc=5)
REM Li 1|1.3|8|9|10|10U:20(qc=5)
REM Fe 3|2.2|2.0|1.0|8|9|10|40:41:32(qc=5)
REM 
CELL 1.54180    9.88516    9.88516    9.88516  138.71387   59.50674  139.11398
LATT -1
SFAC Li O  S  Fe 
Li     1 -0.4698090000000 -0.3197020000000 -0.1652010000000 1.0  -0.01
Li     1  0.4698090000000  0.3046080000000  0.1501070000000 1.0  -0.01
Li     1  0.1545010000000  0.3046080000000 -0.1652010000000 1.0  -0.01
Li     1 -0.1545010000000 -0.3197020000000  0.1501070000000 1.0  -0.01
Li     1  0.4520240000000 -0.3490070000000  0.4906490000000 1.0  -0.00
Li     1 -0.4520240000000  0.0386250000000  0.1989700000000 1.0  -0.00
Li     1 -0.1603440000000  0.0386250000000  0.4906490000000 1.0  -0.00
Li     1  0.1603440000000 -0.3490070000000  0.1989700000000 1.0  -0.00
Li     1  0.3447750000000  0.4955170000000  0.1507420000000 1.0   0.03
Li     1 -0.3447750000000 -0.1940340000000  0.1507420000000 1.0   0.03
O      2 -0.4074440000000 -0.3379950000000  0.2545610000000 1.0   0.00
O      2  0.4074440000000 -0.3379950000000  0.0694490000000 1.0   0.00
S      3  0.0229550000000 -0.0992420000000  0.4633410000000 1.0   0.13
S      3 -0.0229550000000  0.4403860000000 -0.1221970000000 1.0   0.13
S      3 -0.4374170000000  0.4403860000000  0.4633410000000 1.0   0.13
S      3  0.4374170000000 -0.0992420000000 -0.1221970000000 1.0   0.13
S      3  0.1046730000000  0.1998710000000 -0.6954560000000 1.0   0.15
S      3 -0.1046730000000  0.1998710000000  0.0951980000000 1.0   0.15
Fe     4  0.2311230000000  0.1884080000000 -0.5804690000000 1.0   2.84
Fe     4 -0.2311230000000  0.1884080000000 -0.0427140000000 1.0   2.84
END
