TITL LFSO-Li3Fe3S4O2-200929-194202-f1472d 0.0424 375.478518 -1.05621498E+004 -0.305971E-02 0.869887E-02 24 (P3) n - 1
REM
REM Run started: Wed, 30 Sep 2020 15:54:48 +0100 in /lustre/scratch/uccabz1/launch_tmp/launcher_2020-09-29-18-42-00-367517
REM CASTEP 20.1 from code version af48c487+ pr-geom-scf-spinfix Tue Jun 2 15:39:59 2020 +0100
REM Functional Perdew Burke Ernzerhof Relativity Koelling-Harmon Dispersion off
REM Cut-off 340.0000 eV Grid scale 1.7500 Gmax 16.5316 1/A FBSC none
REM MP grid 4 4 1 Offset 0.000 0.000 0.000 No. kpts 8 Spacing 0.07
REM Total runtime: 73052.4 s
REM Overall efficiency: 93.1 %
REM
REM
REM
REM compiler GCC version 4.9.2
REM options -cpp -iprefix /lustre/shared/ucl/apps/gcc/4.9.2/bin/../lib/gcc/x86_64-unknown-linux-gnu/4.9.2/ -mtune=corei7 -march=x86-64 -g -Og
REM COMMAND_LINE
REM seed -1367635582 -1406974337 -845159838 -900787705 -624209225 -2009422395 -302296197 2078544958 1995928401 -1566442064 761399836 -1083775037
REM
REM S 3|1.8|5|6|7|30:31:32(qc=5)
REM O 2|1.5|12|13|15|20:21(qc=5)
REM Li 1|1.3|8|9|10|10U:20(qc=5)
REM Fe 3|2.2|2.0|1.0|8|9|10|40:41:32(qc=5)
REM 
CELL 1.54180    5.23797    5.23797   15.80260   90.00000   90.00000  120.00000
LATT -1
SFAC Li O  S  Fe 
Li     1 -0.6665510000000  0.3326970000000 -0.0858180000000 1.0
Li     1 -0.3326970000000  0.0007520000000 -0.0858180000000 1.0
Li     1 -0.0007520000000  0.6665510000000 -0.0858180000000 1.0
Li     1  0.3260810000000  0.3353400000000 -0.2151740000000 1.0
Li     1 -0.3353400000000 -0.0092590000000 -0.2151740000000 1.0
Li     1  0.0092590000000 -0.3260810000000 -0.2151740000000 1.0
O      2 -0.0015590000000  0.3346460000000 -0.1472880000000 1.0
O      2 -0.3346460000000 -0.3362050000000 -0.1472880000000 1.0
O      2  0.3362050000000  0.0015590000000 -0.1472880000000 1.0
O      2  0.3333330000000 -0.3333330000000 -0.3520270000000 1.0
S      3 -0.0321510000000 -0.3329300000000  0.4880250000000 1.0
S      3  0.3329300000000  0.3007790000000  0.4880250000000 1.0
S      3 -0.3007790000000  0.0321510000000  0.4880250000000 1.0
S      3  0.3100600000000 -0.0232180000000  0.0875400000000 1.0
S      3  0.0232180000000  0.3332780000000  0.0875400000000 1.0
S      3 -0.3332780000000 -0.3100600000000  0.0875400000000 1.0
S      3 -0.0000000000000  0.0000000000000 -0.3487330000000 1.0
S      3 -0.3333330000000  0.3333330000000  0.2675770000000 1.0
Fe     4  0.3761860000000  0.3333880000000  0.1640700000000 1.0
Fe     4 -0.3333880000000  0.0427990000000  0.1640700000000 1.0
Fe     4 -0.0427990000000 -0.3761860000000  0.1640700000000 1.0
Fe     4 -0.3904740000000 -0.3345320000000 -0.4320230000000 1.0
Fe     4  0.3345320000000 -0.0559420000000 -0.4320230000000 1.0
Fe     4  0.0559420000000  0.3904740000000 -0.4320230000000 1.0
END
