TITL LFSO-Li2Fe4SO4-200912-021624-601803 0.0095 140.899613 -5.90936959E+003 12.4185 12.8015 11 (Cm) n - 1
REM
REM Run started: Sat, 12 Sep 2020 06:28:52 +0100 in /lustre/scratch/uccabz1/launch_tmp/launcher_2020-09-12-01-16-22-938928
REM CASTEP 20.1 from code version af48c487+ pr-geom-scf-spinfix Tue Jun 2 15:39:59 2020 +0100
REM Functional Perdew Burke Ernzerhof Relativity Koelling-Harmon Dispersion off
REM Cut-off 340.0000 eV Grid scale 1.7500 Gmax 16.5316 1/A FBSC none
REM MP grid 5 3 4 Offset 0.000 0.000 0.000 No. kpts 30 Spacing 0.07
REM Total runtime: 15442.2 s
REM Overall efficiency: 97.125 %
REM
REM
REM
REM compiler GCC version 4.9.2
REM options -cpp -iprefix /lustre/shared/ucl/apps/gcc/4.9.2/bin/../lib/gcc/x86_64-unknown-linux-gnu/4.9.2/ -mtune=corei7 -march=x86-64 -g -Og
REM COMMAND_LINE
REM seed -1271830279 -318379184 -768441360 268517589 -426875080 729483623 1872683451 -1034078178 -905174630 -1236728122 959735928 -2092497716
REM
REM S 3|1.8|5|6|7|30:31:32(qc=5)
REM O 2|1.5|12|13|15|20:21(qc=5)
REM Li 1|1.3|8|9|10|10U:20(qc=5)
REM Fe 3|2.2|2.0|1.0|8|9|10|40:41:32(qc=5)
REM 
CELL 1.54180    5.91932    6.58132    6.84148  118.74983  134.37960   90.00000
LATT -1
SFAC Li O  S  Fe 
Li     1 -0.5061950000000 -0.3944480000000 -0.3405610000000 1.0  -0.02
Li     1 -0.5061950000000  0.0538870000000 -0.3405610000000 1.0  -0.02
O      2 -0.3334810000000 -0.0129630000000  0.5002760000000 1.0   0.22
O      2 -0.3334810000000 -0.4867610000000  0.5002760000000 1.0   0.22
O      2 -0.0228690000000 -0.1915560000000  0.1640480000000 1.0   0.26
O      2 -0.0228690000000  0.3556040000000  0.1640480000000 1.0   0.26
S      3  0.3399100000000 -0.0615510000000 -0.1231010000000 1.0   0.09
Fe     4 -0.1791680000000 -0.1372890000000  0.3269220000000 1.0   2.74
Fe     4 -0.1791680000000  0.4642110000000  0.3269220000000 1.0   2.74
Fe     4  0.1656760000000  0.2761500000000 -0.0013170000000 1.0   2.97
Fe     4  0.1656760000000 -0.2774670000000 -0.0013170000000 1.0   2.97
END
