TITL LFSO-Li3Fe3S2O4-200929-152241-305ab3 0.0497 207.130375 -5.54836202E+003 8.83302 9.15005 12 (F222) n - 1
REM
REM Run started: Tue, 29 Sep 2020 23:58:12 +0100 in /scratch/scratch/uccabz1/launch_tmp/launcher_2020-09-29-14-22-39-527143
REM CASTEP 19.11| from code version Version unavailable
REM Functional Perdew Burke Ernzerhof Relativity Koelling-Harmon Dispersion off
REM Cut-off 340.0000 eV Grid scale 1.7500 Gmax 16.5316 1/A FBSC none
REM MP grid 4 4 3 Offset 0.000 0.000 0.000 No. kpts 16 Spacing 0.07
REM Total runtime: 36182.6 s
REM Overall efficiency: 97.5833 %
REM
REM
REM
REM compiler GCC version 4.9.2
REM options -cpp -iprefix /scratch/UCL/applications/gcc/4.9.2/bin/../lib/gcc/x86_64-unknown-linux-gnu/4.9.2/ -mtune=corei7 -march=x86-64 -g -O2
REM COMMAND_LINE
REM seed -563275141 1732253528 1478114489 1941461851 2006324598 736856749 -778089814 -1881920502 1193778851 -139559626 -254436724 -173455210
REM
REM S 3|1.8|5|6|7|30:31:32(qc=5)
REM O 2|1.5|12|13|15|20:21(qc=5)
REM Li 1|1.3|8|9|10|10U:20(qc=5)
REM Fe 3|2.2|2.0|1.0|8|9|10|40:41:32(qc=5)
REM 
CELL 1.54180    8.50727    8.50727    9.70219  143.71410  143.71410   33.00868
LATT -1
SFAC Li O  S  Fe 
Li     1 -0.6364160000000 -0.1364160000000 -0.5000000000000 1.0  -0.05
Li     1  0.1364160000000 -0.3635840000000 -0.5000000000000 1.0  -0.05
Li     1  0.0000000000000 -0.0000000000000 -0.0000000000000 1.0  -0.02
O      2 -0.4195360000000 -0.4090350000000 -0.2461960000000 1.0   0.20
O      2 -0.5909650000000 -0.5804640000000 -0.7538040000000 1.0   0.20
O      2  0.1733400000000  0.1628390000000 -0.2461960000000 1.0   0.20
O      2 -0.1628390000000 -0.1733400000000 -0.7538040000000 1.0   0.20
S      3 -0.2205590000000 -0.2205590000000 -0.4411180000000 1.0   0.03
S      3  0.2205590000000  0.2205590000000  0.4411180000000 1.0   0.03
Fe     4  0.0009470000000  0.5009470000000  1.0018940000000 1.0   2.29
Fe     4 -0.5009470000000 -0.0009470000000 -0.0018940000000 1.0   2.29
Fe     4  0.7500000000000  0.2500000000000  0.5000000000000 1.0   3.50
END
