TITL LFSO-Li6FeS3O-200910-004500-cdcc83 0.1088 538.837618 -6.82256643E+003 7.99994 8.22973 22 (R3) n - 1
REM
REM Run started: Thu, 10 Sep 2020 19:15:49 +0100 in /lustre/scratch/uccabz1/launch_tmp/launcher_2020-09-10-14-03-44-166627
REM CASTEP 20.1 from code version af48c487+ pr-geom-scf-spinfix Tue Jun 2 15:39:59 2020 +0100
REM Functional Perdew Burke Ernzerhof Relativity Koelling-Harmon Dispersion off
REM Cut-off 340.0000 eV Grid scale 1.7500 Gmax 16.5316 1/A FBSC none
REM MP grid 3 3 3 Offset 0.000 0.000 0.000 No. kpts 6 Spacing 0.07
REM Total runtime: 52771.7 s
REM Overall efficiency: 93.2727 %
REM
REM
REM
REM compiler GCC version 4.9.2
REM options -cpp -iprefix /lustre/shared/ucl/apps/gcc/4.9.2/bin/../lib/gcc/x86_64-unknown-linux-gnu/4.9.2/ -mtune=corei7 -march=x86-64 -g -Og
REM COMMAND_LINE
REM seed -2142220219 921733565 1467792903 1125521403 1393073082 1421233295 1399482229 375809582 990143670 1141092573 1383244188 1831041922
REM
REM S 3|1.8|5|6|7|30:31:32(qc=5)
REM O 2|1.5|12|13|15|20:21(qc=5)
REM Li 1|1.3|8|9|10|10U:20(qc=5)
REM Fe 3|2.2|2.0|1.0|8|9|10|40:41:32(qc=5)
REM 
CELL 1.54180   10.10942   10.10942   10.10942   48.91471   48.91471   48.91471
LATT -1
SFAC Li O  S  Fe 
Li     1 -0.2776060000000  0.4849640000000  0.3622190000000 1.0   0.01
Li     1  0.3622190000000 -0.2776060000000  0.4849640000000 1.0   0.01
Li     1  0.4849640000000  0.3622190000000 -0.2776060000000 1.0   0.01
Li     1  0.0483070000000  0.0512140000000 -0.3161200000000 1.0  -0.05
Li     1 -0.3161200000000  0.0483070000000  0.0512140000000 1.0  -0.05
Li     1  0.0512140000000 -0.3161200000000  0.0483070000000 1.0  -0.05
Li     1  0.4476650000000  0.1322060000000 -0.4481870000000 1.0   0.06
Li     1 -0.4481870000000  0.4476650000000  0.1322060000000 1.0   0.06
Li     1  0.1322060000000 -0.4481870000000  0.4476650000000 1.0   0.06
Li     1 -0.1670440000000 -0.0259260000000 -0.5468850000000 1.0  -0.03
Li     1 -0.5468850000000 -0.1670440000000 -0.0259260000000 1.0  -0.03
Li     1 -0.0259260000000 -0.5468850000000 -0.1670440000000 1.0  -0.03
O      2 -0.4490150000000 -0.4490150000000 -0.4490150000000 1.0   0.01
O      2 -0.0873700000000 -0.0873700000000 -0.0873700000000 1.0   0.17
S      3  0.1108160000000  0.2301900000000 -0.3015710000000 1.0   0.10
S      3 -0.3015710000000  0.1108160000000  0.2301900000000 1.0   0.10
S      3  0.2301900000000 -0.3015710000000  0.1108160000000 1.0   0.10
S      3 -0.2589080000000  0.5742420000000  0.0726540000000 1.0   0.14
S      3  0.0726540000000 -0.2589080000000  0.5742420000000 1.0   0.14
S      3  0.5742420000000  0.0726540000000 -0.2589080000000 1.0   0.14
Fe     4 -0.1659490000000 -0.1659490000000 -0.1659490000000 1.0   3.64
Fe     4 -0.0020670000000 -0.0020670000000 -0.0020670000000 1.0   3.48
END
