TITL LFSO-Li3Fe3S2O4-200929-154522-94ac97 0.1778 154.118004 -5.55038016E+003 7.22199 7.52719 12 (C2) n - 1
REM
REM Run started: Tue, 29 Sep 2020 21:10:46 +0100 in /lustre/scratch/uccabz1/launch_tmp/launcher_2020-09-29-14-45-21-108038
REM CASTEP 20.1 from code version af48c487+ pr-geom-scf-spinfix Tue Jun 2 15:39:59 2020 +0100
REM Functional Perdew Burke Ernzerhof Relativity Koelling-Harmon Dispersion off
REM Cut-off 340.0000 eV Grid scale 1.7500 Gmax 16.5316 1/A FBSC none
REM MP grid 5 3 2 Offset 0.000 0.000 0.000 No. kpts 15 Spacing 0.07
REM Total runtime: 20671.7 s
REM Overall efficiency: 76.0833 %
REM
REM
REM
REM compiler GCC version 4.9.2
REM options -cpp -iprefix /lustre/shared/ucl/apps/gcc/4.9.2/bin/../lib/gcc/x86_64-unknown-linux-gnu/4.9.2/ -mtune=corei7 -march=x86-64 -g -Og
REM COMMAND_LINE
REM seed 1859608504 -1305160230 -2141908347 -1971266980 -964034488 -1095839033 1903688428 -982834262 -70594541 -1923067020 579418787 -1637193335
REM
REM S 3|1.8|5|6|7|30:31:32(qc=5)
REM O 2|1.5|12|13|15|20:21(qc=5)
REM Li 1|1.3|8|9|10|10U:20(qc=5)
REM Fe 3|2.2|2.0|1.0|8|9|10|40:41:32(qc=5)
REM 
CELL 1.54180    2.99721    6.83643    8.33807  113.10280  100.35407   90.00000
LATT -1
SFAC Li O  S  Fe 
Li     1  0.3962080000000  0.1282310000000 -0.2118520000000 1.0   0.01
Li     1 -0.3919400000000 -0.1282310000000  0.2118530000000 1.0   0.01
Li     1 -0.1470910000000 -0.5000000000000  0.0000000000000 1.0   0.01
O      2  0.0435440000000 -0.2242100000000  0.0576280000000 1.0   0.22
O      2 -0.0140850000000  0.2242100000000 -0.0576280000000 1.0   0.22
O      2  0.1041300000000 -0.1597140000000 -0.2485540000000 1.0   0.14
O      2  0.3526850000000  0.1597140000000  0.2485540000000 1.0   0.14
S      3  0.5322140000000  0.3724470000000 -0.3826610000000 1.0   0.01
S      3 -0.0851250000000 -0.3724470000000  0.3826610000000 1.0   0.01
Fe     4 -0.4753320000000 -0.3116890000000 -0.4043830000000 1.0   1.84
Fe     4 -0.0709490000000  0.3116890000000  0.4043840000000 1.0   1.84
Fe     4  0.0869510000000 -0.0000000000000  0.0000000000000 1.0   2.77
END
