TITL LFSO-Li2Fe2SO2-200912-224043-5150bb 0.0691 91.722715 -3.30385566E+003 7.52627 7.78825 7 (I-4m2) n - 1
REM
REM Run started: Sat, 12 Sep 2020 23:19:48 +0100 in /lustre/scratch/uccabz1/launch_tmp/launcher_2020-09-12-21-40-41-785686
REM CASTEP 20.1 from code version af48c487+ pr-geom-scf-spinfix Tue Jun 2 15:39:59 2020 +0100
REM Functional Perdew Burke Ernzerhof Relativity Koelling-Harmon Dispersion off
REM Cut-off 340.0000 eV Grid scale 1.7500 Gmax 16.5316 1/A FBSC none
REM MP grid 5 5 2 Offset 0.000 0.000 0.000 No. kpts 15 Spacing 0.07
REM Total runtime: 2927.83 s
REM Overall efficiency: 92 %
REM
REM
REM
REM compiler GCC version 4.9.2
REM options -cpp -iprefix /lustre/shared/ucl/apps/gcc/4.9.2/bin/../lib/gcc/x86_64-unknown-linux-gnu/4.9.2/ -mtune=corei7 -march=x86-64 -g -Og
REM COMMAND_LINE
REM seed -78278906 25223822 1943259012 396733853 197946062 275023637 41025370 -1191405576 1519537415 1902717407 -559906780 -1607420646
REM
REM S 3|1.8|5|6|7|30:31:32(qc=5)
REM O 2|1.5|12|13|15|20:21(qc=5)
REM Li 1|1.3|8|9|10|10U:20(qc=5)
REM Fe 3|2.2|2.0|1.0|8|9|10|40:41:32(qc=5)
REM 
CELL 1.54180    3.03014    3.03014   10.21792   98.56334   98.56334   89.75763
LATT -1
SFAC Li O  S  Fe 
Li     1 -0.2500000000000  0.2500000000000 -0.5000000000000 1.0  -0.21
Li     1  0.0000000000000 -0.0000000000000  0.0000000000000 1.0  -0.04
O      2 -0.3425500000000  0.1574500000000  0.3149000000000 1.0   0.24
O      2 -0.1574500000000  0.3425500000000 -0.3149000000000 1.0   0.24
S      3 -0.5000000000000 -0.5000000000000  0.0000000000000 1.0   0.07
Fe     4  0.3581100000000 -0.1418900000000 -0.2837800000000 1.0   3.61
Fe     4  0.1418900000000 -0.3581100000000  0.2837800000000 1.0   3.61
END
