TITL LFSO-Li2FeSO-200912-003040-226868 0.0051 366.019726 -4.00862209E+003 7.99727 8.32269 10 (Pmc21) n - 1
REM
REM Run started: Sat, 12 Sep 2020 02:16:37 +0100 in /lustre/scratch/uccabz1/launch_tmp/launcher_2020-09-11-23-30-38-714553
REM CASTEP 20.1 from code version af48c487+ pr-geom-scf-spinfix Tue Jun 2 15:39:59 2020 +0100
REM Functional Perdew Burke Ernzerhof Relativity Koelling-Harmon Dispersion off
REM Cut-off 340.0000 eV Grid scale 1.7500 Gmax 16.5316 1/A FBSC none
REM MP grid 2 3 3 Offset 0.000 0.000 0.000 No. kpts 4 Spacing 0.07
REM Total runtime: 6682.5 s
REM Overall efficiency: 94.6 %
REM
REM
REM
REM compiler GCC version 4.9.2
REM options -cpp -iprefix /lustre/shared/ucl/apps/gcc/4.9.2/bin/../lib/gcc/x86_64-unknown-linux-gnu/4.9.2/ -mtune=corei7 -march=x86-64 -g -Og
REM COMMAND_LINE
REM seed -2004482765 483016651 77649201 1323439743 950866559 -1278016173 -1430241877 1548677391 202293554 1814166660 -1109067461 1543299331
REM
REM S 3|1.8|5|6|7|30:31:32(qc=5)
REM O 2|1.5|12|13|15|20:21(qc=5)
REM Li 1|1.3|8|9|10|10U:20(qc=5)
REM Fe 3|2.2|2.0|1.0|8|9|10|40:41:32(qc=5)
REM 
CELL 1.54180    8.05557    6.68797    6.79382   90.00000   90.00000   90.00000
LATT -1
SFAC Li O  S  Fe 
Li     1 -0.3540040000000  0.1787030000000  0.0396300000000 1.0  -0.02
Li     1  0.3540040000000 -0.1787030000000 -0.4603700000000 1.0  -0.02
Li     1 -0.3540040000000 -0.1787030000000 -0.4603700000000 1.0  -0.02
Li     1  0.3540040000000  0.1787030000000  0.0396300000000 1.0  -0.02
O      2  0.5000000000000  0.4061260000000  0.0443600000000 1.0   0.26
O      2  0.5000000000000 -0.4061260000000  0.5443600000000 1.0   0.26
S      3  0.5000000000000 -0.0775320000000  0.2297310000000 1.0   0.26
S      3  0.5000000000000  0.0775320000000 -0.2702690000000 1.0   0.26
Fe     4 -0.5000000000000 -0.4112080000000  0.2564860000000 1.0   3.53
Fe     4 -0.5000000000000  0.4112080000000 -0.2435140000000 1.0   3.53
END
