TITL LFSO-Li2Fe2SO3-200913-090654-a0aa22 0.0171 194.760412 -7.48661799E+003 7.62056 8.05782 16 (P3) n - 1
REM
REM Run started: Sun, 13 Sep 2020 13:03:59 +0100 in /lustre/scratch/uccabz1/launch_tmp/launcher_2020-09-13-08-06-53-213007
REM CASTEP 20.1 from code version af48c487+ pr-geom-scf-spinfix Tue Jun 2 15:39:59 2020 +0100
REM Functional Perdew Burke Ernzerhof Relativity Koelling-Harmon Dispersion off
REM Cut-off 340.0000 eV Grid scale 1.7500 Gmax 16.5316 1/A FBSC none
REM MP grid 3 3 3 Offset 0.000 0.000 0.000 No. kpts 8 Spacing 0.07
REM Total runtime: 14288.6 s
REM Overall efficiency: 85.2857 %
REM
REM
REM
REM compiler GCC version 4.9.2
REM options -cpp -iprefix /lustre/shared/ucl/apps/gcc/4.9.2/bin/../lib/gcc/x86_64-unknown-linux-gnu/4.9.2/ -mtune=corei7 -march=x86-64 -g -Og
REM COMMAND_LINE
REM seed -216823991 2003511808 -449086029 -1375309879 -1128231079 -26585006 765763284 -792327398 -40909706 1707549034 1186905655 134991722
REM
REM S 3|1.8|5|6|7|30:31:32(qc=5)
REM O 2|1.5|12|13|15|20:21(qc=5)
REM Li 1|1.3|8|9|10|10U:20(qc=5)
REM Fe 3|2.2|2.0|1.0|8|9|10|40:41:32(qc=5)
REM 
CELL 1.54180    5.99422    5.99422    6.25900   90.00000   90.00000  120.00000
LATT -1
SFAC Li O  S  Fe 
Li     1  0.4371990000000  0.0225720000000  0.0823660000000 1.0   0.01
Li     1 -0.0225720000000  0.4146270000000  0.0823660000000 1.0   0.01
Li     1 -0.4146270000000 -0.4371990000000  0.0823660000000 1.0   0.01
Li     1  0.3333330000000 -0.3333330000000 -0.3994300000000 1.0   0.02
O      2 -0.4808520000000 -0.5102540000000  0.3854890000000 1.0   0.09
O      2  0.5102540000000  0.0294030000000  0.3854890000000 1.0   0.09
O      2 -0.0294030000000  0.4808520000000  0.3854890000000 1.0   0.09
O      2 -0.4955780000000  0.0245040000000 -0.2218030000000 1.0   0.10
O      2 -0.0245040000000 -0.5200810000000 -0.2218030000000 1.0   0.10
O      2  0.5200810000000  0.4955780000000 -0.2218030000000 1.0   0.10
S      3  0.0000000000000 -0.0000000000000  0.4728200000000 1.0  -0.08
S      3  0.0000000000000 -0.0000000000000  0.1309310000000 1.0   0.07
Fe     4 -0.2009760000000 -0.4106320000000 -0.4255580000000 1.0   1.38
Fe     4  0.4106320000000  0.2096560000000 -0.4255580000000 1.0   1.38
Fe     4 -0.2096560000000  0.2009760000000 -0.4255580000000 1.0   1.38
Fe     4  0.0000000000000 -0.0000000000000 -0.1968970000000 1.0   2.86
END
