TITL LFSO-Li4Fe3S3O2-200927-045242-d8af12 -0.6265 419.009500 -1.03555015E+004 19.1214 19.5148 24 (P21) n - 1
REM
REM Run started: Tue, 29 Sep 2020 07:19:48 +0100 in /lustre/scratch/uccabz1/launch_tmp/launcher_2020-09-29-05-18-52-220229
REM CASTEP 20.1 from code version af48c487+ pr-geom-scf-spinfix Tue Jun 2 15:39:59 2020 +0100
REM Functional Perdew Burke Ernzerhof Relativity Koelling-Harmon Dispersion off
REM Cut-off 340.0000 eV Grid scale 1.7500 Gmax 16.5316 1/A FBSC none
REM MP grid 4 3 1 Offset 0.000 0.000 0.000 No. kpts 6 Spacing 0.07
REM Total runtime: 126389 s
REM Overall efficiency: 98.6154 %
REM
REM
REM
REM compiler GCC version 4.9.2
REM options -cpp -iprefix /lustre/shared/ucl/apps/gcc/4.9.2/bin/../lib/gcc/x86_64-unknown-linux-gnu/4.9.2/ -mtune=corei7 -march=x86-64 -g -Og
REM COMMAND_LINE
REM seed -234648066 -664533391 -351246080 -1029198059 480783377 -1230032256 -1792064823 -1258574215 1530178368 -1172777198 244060890 -1635333962
REM
REM S 3|1.8|5|6|7|30:31:32(qc=5)
REM O 2|1.5|12|13|15|20:21(qc=5)
REM Li 1|1.3|8|9|10|10U:20(qc=5)
REM Fe 3|2.2|2.0|1.0|8|9|10|40:41:32(qc=5)
REM 
CELL 1.54180    4.27863    7.00555   15.38675   90.00000   90.00000   65.30029
LATT -1
SFAC Li O  S  Fe 
Li     1 -0.5638010000000  0.1486230000000 -0.4952280000000 1.0  -0.02
Li     1  0.5638010000000 -0.1486230000000  0.0047720000000 1.0  -0.02
Li     1 -0.0342240000000 -0.0975660000000  0.2629060000000 1.0  -0.00
Li     1  0.0342240000000  0.0975660000000 -0.2370940000000 1.0  -0.00
Li     1 -0.2526740000000 -0.4180590000000  0.1581880000000 1.0  -0.01
Li     1  0.2526740000000  0.4180590000000 -0.3418120000000 1.0  -0.01
Li     1 -0.2609790000000 -0.3979060000000 -0.1966260000000 1.0   0.04
Li     1  0.2609790000000  0.3979060000000  0.3033740000000 1.0   0.04
O      2 -0.0549840000000 -0.3102930000000  0.3301930000000 1.0   0.31
O      2  0.0549840000000  0.3102930000000 -0.1698070000000 1.0   0.31
O      2  0.4228610000000  0.3681440000000  0.4307670000000 1.0   0.25
O      2 -0.4228610000000 -0.3681440000000 -0.0692330000000 1.0   0.25
S      3 -0.1665910000000  0.2662830000000  0.2315580000000 1.0   0.23
S      3  0.1665910000000 -0.2662830000000 -0.2684420000000 1.0   0.23
S      3 -0.0909690000000  0.2159750000000 -0.3990440000000 1.0   0.17
S      3  0.0909690000000 -0.2159750000000  0.1009560000000 1.0   0.17
S      3 -0.3213400000000 -0.2118840000000 -0.4516520000000 1.0   0.11
S      3  0.3213400000000  0.2118840000000  0.0483480000000 1.0   0.11
Fe     4 -0.0432440000000  0.3760590000000 -0.0601560000000 1.0   2.60
Fe     4  0.0432440000000 -0.3760590000000  0.4398440000000 1.0   2.60
Fe     4 -0.1570240000000  0.1746860000000  0.0912540000000 1.0   2.94
Fe     4  0.1570240000000 -0.1746860000000 -0.4087460000000 1.0   2.94
Fe     4  0.3817970000000 -0.4889240000000  0.0071330000000 1.0   2.94
Fe     4 -0.3817970000000  0.4889240000000  0.5071330000000 1.0   2.94
END
