TITL LFSO-LiFe3SO4-200909-022348-c3b98d -0.0949 238.889317 -9.69078847E+003 13.5637 13.9367 18 (Pm) n - 1
REM
REM Run started: Thu, 10 Sep 2020 05:12:23 +0100 in /lustre/scratch/uccabz1/launch_tmp/launcher_2020-09-09-01-23-46-742208
REM CASTEP 20.1 from code version af48c487+ pr-geom-scf-spinfix Tue Jun 2 15:39:59 2020 +0100
REM Functional Perdew Burke Ernzerhof Relativity Koelling-Harmon Dispersion off
REM Cut-off 340.0000 eV Grid scale 1.7500 Gmax 16.5316 1/A FBSC none
REM MP grid 3 5 2 Offset 0.000 0.000 0.000 No. kpts 8 Spacing 0.07
REM Total runtime: 89097.7 s
REM Overall efficiency: 97.5833 %
REM
REM
REM
REM compiler GCC version 4.9.2
REM options -cpp -iprefix /lustre/shared/ucl/apps/gcc/4.9.2/bin/../lib/gcc/x86_64-unknown-linux-gnu/4.9.2/ -mtune=corei7 -march=x86-64 -g -Og
REM COMMAND_LINE
REM seed 1362327549 115845077 -1747222484 1891540386 -1264798799 1944274587 -303723849 -2011641030 281879886 -790802773 649219215 -60934744
REM
REM S 3|1.8|5|6|7|30:31:32(qc=5)
REM O 2|1.5|12|13|15|20:21(qc=5)
REM Li 1|1.3|8|9|10|10U:20(qc=5)
REM Fe 3|2.2|2.0|1.0|8|9|10|40:41:32(qc=5)
REM 
CELL 1.54180    6.03598    3.59020   11.55602   90.00000   90.00000   72.54286
LATT -1
SFAC Li O  S  Fe 
Li     1  0.5506790000000  0.0279470000000  0.3187350000000 1.0  -0.02
Li     1  0.5506790000000  0.0279470000000 -0.3187350000000 1.0  -0.02
O      2 -0.2453440000000 -0.5714960000000  0.1219080000000 1.0   0.41
O      2 -0.2453440000000 -0.5714960000000 -0.1219080000000 1.0   0.41
O      2  0.4013160000000  0.1092940000000  0.1442430000000 1.0   0.13
O      2  0.4013160000000  0.1092940000000 -0.1442430000000 1.0   0.13
O      2 -0.8824870000000 -0.2492360000000 -0.1233620000000 1.0   0.16
O      2 -0.8824870000000 -0.2492360000000  0.1233620000000 1.0   0.16
O      2  0.4559000000000 -0.4242940000000  0.3654510000000 1.0   0.14
O      2  0.4559000000000 -0.4242940000000 -0.3654510000000 1.0   0.14
S      3  0.0016930000000  0.3207190000000 -0.3495540000000 1.0  -0.02
S      3  0.0016930000000  0.3207190000000  0.3495540000000 1.0  -0.02
Fe     4  0.1770750000000 -0.2695080000000 -0.4087100000000 1.0   1.09
Fe     4  0.1770750000000 -0.2695080000000  0.4087100000000 1.0   1.09
Fe     4  0.0541880000000  0.2831340000000 -0.1510500000000 1.0   2.28
Fe     4  0.0541880000000  0.2831340000000  0.1510500000000 1.0   2.28
Fe     4  0.4530300000000 -0.4177780000000 -0.1192300000000 1.0   2.61
Fe     4  0.4530300000000 -0.4177780000000  0.1192300000000 1.0   2.61
END
