TITL LFSO-Li4Fe3S4O-200926-121409-185dce 0.0463 423.807039 -1.00840134E+004 14.1122 15.0530 24 (P3) n - 1
REM
REM Run started: Sun, 27 Sep 2020 03:04:46 +0100 in /lustre/scratch/uccabz1/launch_tmp/launcher_2020-09-26-11-14-08-008925
REM CASTEP 20.1 from code version af48c487+ pr-geom-scf-spinfix Tue Jun 2 15:39:59 2020 +0100
REM Functional Perdew Burke Ernzerhof Relativity Koelling-Harmon Dispersion off
REM Cut-off 340.0000 eV Grid scale 1.7500 Gmax 16.5316 1/A FBSC none
REM MP grid 3 3 2 Offset 0.000 0.000 0.000 No. kpts 5 Spacing 0.07
REM Total runtime: 53822.5 s
REM Overall efficiency: 75.9091 %
REM
REM
REM
REM compiler GCC version 4.9.2
REM options -cpp -iprefix /lustre/shared/ucl/apps/gcc/4.9.2/bin/../lib/gcc/x86_64-unknown-linux-gnu/4.9.2/ -mtune=corei7 -march=x86-64 -g -Og
REM COMMAND_LINE
REM seed -1354763363 1947214197 -48030223 607428021 -1835789593 -562934166 334044075 1483990884 351277269 1005013379 547999959 -1802461646
REM
REM S 3|1.8|5|6|7|30:31:32(qc=5)
REM O 2|1.5|12|13|15|20:21(qc=5)
REM Li 1|1.3|8|9|10|10U:20(qc=5)
REM Fe 3|2.2|2.0|1.0|8|9|10|40:41:32(qc=5)
REM 
CELL 1.54180    7.09244    7.09244    9.72851   90.00000   90.00000  120.00000
LATT -1
SFAC Li O  S  Fe 
Li     1  0.3461740000000 -0.1225620000000 -0.4513080000000 1.0   0.02
Li     1 -0.4687370000000 -0.3461740000000 -0.4513080000000 1.0   0.02
Li     1  0.1225620000000  0.4687370000000 -0.4513080000000 1.0   0.02
Li     1  0.6033010000000 -0.1743000000000 -0.1958570000000 1.0  -0.02
Li     1  0.2224000000000 -0.6033010000000 -0.1958570000000 1.0  -0.02
Li     1  0.1743000000000 -0.2224000000000 -0.1958570000000 1.0  -0.02
Li     1 -0.0000000000000  0.0000000000000 -0.4537780000000 1.0   0.02
Li     1 -0.3333330000000  0.3333330000000 -0.1159260000000 1.0  -0.06
O      2  0.3333330000000 -0.3333330000000  0.3976730000000 1.0   0.10
O      2  0.3333330000000 -0.3333330000000 -0.2908570000000 1.0   0.03
S      3  0.3419200000000  0.2738600000000  0.4769630000000 1.0   0.16
S      3 -0.0680590000000 -0.3419200000000  0.4769630000000 1.0   0.16
S      3 -0.2738600000000  0.0680590000000  0.4769630000000 1.0   0.16
S      3 -0.1939240000000  0.0953810000000  0.1289660000000 1.0   0.06
S      3  0.2893050000000  0.1939240000000  0.1289660000000 1.0   0.06
S      3 -0.0953810000000 -0.2893050000000  0.1289660000000 1.0   0.06
S      3  0.3333330000000 -0.3333330000000  0.0823240000000 1.0   0.00
S      3 -0.0000000000000  0.0000000000000 -0.2101290000000 1.0  -0.02
Fe     4  0.1229170000000 -0.2993900000000  0.2948870000000 1.0   2.33
Fe     4 -0.4223080000000 -0.1229170000000  0.2948870000000 1.0   2.33
Fe     4  0.2993900000000  0.4223080000000  0.2948870000000 1.0   2.33
Fe     4 -0.5247460000000  0.0311920000000  0.1198720000000 1.0   2.14
Fe     4 -0.4440610000000  0.5247460000000  0.1198720000000 1.0   2.14
Fe     4 -0.0311920000000  0.4440610000000  0.1198720000000 1.0   2.14
END
