TITL LFSO-Li5FeS3O-200910-094501-118ecc 0.0575 259.382619 -3.21005795E+003 3.00000 3.78841 10 (P3) n - 1
REM
REM Run started: Thu, 10 Sep 2020 13:31:07 +0100 in /lustre/scratch/uccabz1/launch_tmp/launcher_2020-09-10-10-23-21-626383
REM CASTEP 20.1 from code version af48c487+ pr-geom-scf-spinfix Tue Jun 2 15:39:59 2020 +0100
REM Functional Perdew Burke Ernzerhof Relativity Koelling-Harmon Dispersion off
REM Cut-off 340.0000 eV Grid scale 1.7500 Gmax 16.5316 1/A FBSC none
REM MP grid 3 3 3 Offset 0.000 0.000 0.000 No. kpts 8 Spacing 0.07
REM Total runtime: 12708.7 s
REM Overall efficiency: 78.8333 %
REM
REM
REM
REM compiler GCC version 4.9.2
REM options -cpp -iprefix /lustre/shared/ucl/apps/gcc/4.9.2/bin/../lib/gcc/x86_64-unknown-linux-gnu/4.9.2/ -mtune=corei7 -march=x86-64 -g -Og
REM COMMAND_LINE
REM seed 1582734739 1633925265 1427800431 1888152012 68851944 549645450 1156631731 -421531852 -1065416304 -320572244 -1871176038 1114864063
REM
REM S 3|1.8|5|6|7|30:31:32(qc=5)
REM O 2|1.5|12|13|15|20:21(qc=5)
REM Li 1|1.3|8|9|10|10U:20(qc=5)
REM Fe 3|2.2|2.0|1.0|8|9|10|40:41:32(qc=5)
REM 
CELL 1.54180    4.75614    7.93557    7.93557  120.00000   90.00000   90.00000
LATT -1
SFAC Li O  S  Fe 
Li     1  0.0137980000000 -0.2096430000000 -0.2210620000000 1.0   0.03
Li     1  0.0137980000000 -0.0114190000000  0.2096430000000 1.0   0.03
Li     1  0.0137980000000  0.2210620000000  0.0114190000000 1.0   0.03
Li     1 -0.5940160000000  0.3333330000000 -0.3333330000000 1.0   0.11
Li     1 -0.2105370000000 -0.3333330000000  0.3333330000000 1.0  -0.15
O      2 -0.0363800000000  0.0000000000000  0.0000000000000 1.0  -0.28
S      3  0.3540580000000  0.4625760000000  0.0303540000000 1.0   0.18
S      3  0.3540580000000 -0.4322230000000 -0.4625760000000 1.0   0.18
S      3  0.3540580000000 -0.0303540000000  0.4322230000000 1.0   0.18
Fe     4  0.3003480000000 -0.3333330000000  0.3333330000000 1.0   2.70
END
