TITL LFSO-Li5FeS3O-200910-094912-560341 -0.1368 336.208963 -6.42456830E+003 9.23510 9.29091 20 (I212121) n - 1
REM
REM Run started: Thu, 10 Sep 2020 22:34:59 +0100 in /lustre/scratch/uccabz1/launch_tmp/launcher_2020-09-10-08-49-10-861067
REM CASTEP 20.1 from code version af48c487+ pr-geom-scf-spinfix Tue Jun 2 15:39:59 2020 +0100
REM Functional Perdew Burke Ernzerhof Relativity Koelling-Harmon Dispersion off
REM Cut-off 340.0000 eV Grid scale 1.7500 Gmax 16.5316 1/A FBSC none
REM MP grid 3 3 2 Offset 0.000 0.000 0.000 No. kpts 8 Spacing 0.07
REM Total runtime: 49648.4 s
REM Overall efficiency: 98.5385 %
REM
REM
REM
REM compiler GCC version 4.9.2
REM options -cpp -iprefix /lustre/shared/ucl/apps/gcc/4.9.2/bin/../lib/gcc/x86_64-unknown-linux-gnu/4.9.2/ -mtune=corei7 -march=x86-64 -g -Og
REM COMMAND_LINE
REM seed -676254206 -35205613 -667024685 299823398 2093515671 -1105595261 -992772448 -1846271036 -1589091759 1898119152 -493412726 -1381700834
REM
REM S 3|1.8|5|6|7|30:31:32(qc=5)
REM O 2|1.5|12|13|15|20:21(qc=5)
REM Li 1|1.3|8|9|10|10U:20(qc=5)
REM Fe 3|2.2|2.0|1.0|8|9|10|40:41:32(qc=5)
REM 
CELL 1.54180    6.15628    7.17726    8.95831  113.61520  110.09679   90.00000
LATT -1
SFAC Li O  S  Fe 
Li     1  0.4872060000000 -0.0706530000000 -0.1563030000000 1.0   0.02
Li     1  0.1435100000000 -0.4293470000000  0.1563030000000 1.0   0.02
Li     1  0.3564900000000  0.4143490000000 -0.1563030000000 1.0   0.02
Li     1  0.0127940000000  0.0856510000000  0.1563030000000 1.0   0.02
Li     1  0.3880830000000 -0.0230760000000  0.3224090000000 1.0  -0.02
Li     1 -0.4343260000000 -0.4769240000000 -0.3224090000000 1.0  -0.02
Li     1 -0.0656740000000 -0.1545150000000  0.3224090000000 1.0  -0.02
Li     1  0.1119170000000 -0.3454850000000 -0.3224090000000 1.0  -0.02
Li     1  0.2500000000000 -0.2453390000000  0.0000000000000 1.0   0.04
Li     1 -0.2500000000000 -0.2546610000000  0.0000000000000 1.0   0.04
O      2  0.4260110000000  0.6760110000000  0.8520230000000 1.0   0.04
O      2  0.0739890000000 -0.1760110000000 -0.8520230000000 1.0   0.04
S      3 -0.1904620000000 -0.1410170000000 -0.2549990000000 1.0   0.37
S      3 -0.4354630000000 -0.3589830000000  0.2549990000000 1.0   0.37
S      3 -0.0645370000000  0.3860180000000 -0.2549990000000 1.0   0.37
S      3 -0.3095380000000  0.1139820000000  0.2549990000000 1.0   0.37
S      3  0.2046430000000  0.4546430000000  0.4092860000000 1.0   0.26
S      3  0.2953570000000  0.0453570000000 -0.4092860000000 1.0   0.26
Fe     4 -0.5080330000000 -0.2500000000000  0.5000000000000 1.0   3.54
Fe     4  0.0080330000000  0.2500000000000  0.5000000000000 1.0   3.54
END
