TITL LFSO-Li2Fe4S2O3-200912-133336-db48ef -0.0426 140.947419 -5.77298789E+003 0.257933E-01 0.535036E-01 11 (R3) n - 1
REM
REM Run started: Sat, 12 Sep 2020 16:18:54 +0100 in /lustre/scratch/uccabz1/launch_tmp/launcher_2020-09-12-12-33-34-506295
REM CASTEP 20.1 from code version af48c487+ pr-geom-scf-spinfix Tue Jun 2 15:39:59 2020 +0100
REM Functional Perdew Burke Ernzerhof Relativity Koelling-Harmon Dispersion off
REM Cut-off 340.0000 eV Grid scale 1.7500 Gmax 16.5316 1/A FBSC none
REM MP grid 4 4 3 Offset 0.000 0.000 0.000 No. kpts 24 Spacing 0.07
REM Total runtime: 10029.3 s
REM Overall efficiency: 95.3333 %
REM
REM
REM
REM compiler GCC version 4.9.2
REM options -cpp -iprefix /lustre/shared/ucl/apps/gcc/4.9.2/bin/../lib/gcc/x86_64-unknown-linux-gnu/4.9.2/ -mtune=corei7 -march=x86-64 -g -Og
REM COMMAND_LINE
REM seed 1663914552 1488424233 815933188 1605108262 282522432 -2025275270 -738546849 1588919470 1877518143 965159315 -769755324 796012084
REM
REM S 3|1.8|5|6|7|30:31:32(qc=5)
REM O 2|1.5|12|13|15|20:21(qc=5)
REM Li 1|1.3|8|9|10|10U:20(qc=5)
REM Fe 3|2.2|2.0|1.0|8|9|10|40:41:32(qc=5)
REM 
CELL 1.54180    5.59712    5.59712    6.11817   62.77940   62.77940   60.00000
LATT -1
SFAC Li O  S  Fe 
Li     1  0.3987010000000  0.3987010000000 -0.1961030000000 1.0   0.00
Li     1 -0.4270370000000 -0.4270370000000  0.2811110000000 1.0   0.00
O      2 -0.4459170000000 -0.2678300000000 -0.4384080000000 1.0   0.00
O      2  0.1521550000000 -0.4459170000000 -0.4384080000000 1.0   0.00
O      2 -0.2678300000000  0.1521550000000 -0.4384080000000 1.0   0.00
S      3  0.0294320000000  0.0294320000000 -0.0882950000000 1.0  -0.00
S      3  0.2527930000000  0.2527930000000  0.2416220000000 1.0   0.00
Fe     4 -0.0997390000000  0.4041460000000 -0.4366430000000 1.0   0.01
Fe     4  0.1322350000000 -0.0997390000000 -0.4366430000000 1.0   0.01
Fe     4  0.4041460000000  0.1322350000000 -0.4366430000000 1.0   0.01
Fe     4 -0.1025120000000 -0.1025120000000  0.3075370000000 1.0  -0.00
END
