TITL LFSO-Li3FeSO2-200911-161851-889759 -0.0251 322.168754 -7.92158645E+003 11.1016 11.6046 21 (P222) n - 1
REM
REM Run started: Fri, 11 Sep 2020 21:46:07 +0100 in /lustre/scratch/uccabz1/launch_tmp/launcher_2020-09-11-15-18-49-361577
REM CASTEP 20.1 from code version af48c487+ pr-geom-scf-spinfix Tue Jun 2 15:39:59 2020 +0100
REM Functional Perdew Burke Ernzerhof Relativity Koelling-Harmon Dispersion off
REM Cut-off 340.0000 eV Grid scale 1.7500 Gmax 16.5316 1/A FBSC none
REM MP grid 5 2 2 Offset 0.000 0.000 0.000 No. kpts 3 Spacing 0.07
REM Total runtime: 20535.1 s
REM Overall efficiency: 90.7143 %
REM
REM
REM
REM compiler GCC version 4.9.2
REM options -cpp -iprefix /lustre/shared/ucl/apps/gcc/4.9.2/bin/../lib/gcc/x86_64-unknown-linux-gnu/4.9.2/ -mtune=corei7 -march=x86-64 -g -Og
REM COMMAND_LINE
REM seed 1305331880 -2133805219 1607230358 -1670100579 -1081286858 88838903 -141547636 1539829528 22656687 -1842370045 -463270586 -1260729699
REM
REM S 3|1.8|5|6|7|30:31:32(qc=5)
REM O 2|1.5|12|13|15|20:21(qc=5)
REM Li 1|1.3|8|9|10|10U:20(qc=5)
REM Fe 3|2.2|2.0|1.0|8|9|10|40:41:32(qc=5)
REM 
CELL 1.54180    3.50507    9.66432    9.51078   90.00000   90.00000   90.00000
LATT -1
SFAC Li O  S  Fe 
Li     1  0.3703780000000  0.2460750000000  0.1388330000000 1.0  -0.03
Li     1  0.3703780000000 -0.2460750000000 -0.1388330000000 1.0  -0.03
Li     1 -0.3703780000000  0.2460750000000 -0.1388330000000 1.0  -0.03
Li     1 -0.3703780000000 -0.2460750000000  0.1388330000000 1.0  -0.03
Li     1  0.0801590000000 -0.2324110000000  0.3588670000000 1.0   0.01
Li     1  0.0801590000000  0.2324110000000 -0.3588670000000 1.0   0.01
Li     1 -0.0801590000000 -0.2324110000000 -0.3588670000000 1.0   0.01
Li     1 -0.0801590000000  0.2324110000000  0.3588670000000 1.0   0.01
Li     1 -0.0000000000000  0.0000000000000  0.0000000000000 1.0  -0.07
O      2  0.4274480000000 -0.3245500000000 -0.3194660000000 1.0   0.24
O      2  0.4274480000000  0.3245500000000  0.3194660000000 1.0   0.24
O      2 -0.4274480000000 -0.3245500000000  0.3194660000000 1.0   0.24
O      2 -0.4274480000000  0.3245500000000 -0.3194660000000 1.0   0.24
O      2 -0.0000000000000  0.1837990000000  0.0000000000000 1.0   0.15
O      2 -0.0000000000000 -0.1837990000000  0.0000000000000 1.0   0.15
S      3 -0.0000000000000  0.0000000000000  0.2502220000000 1.0   0.14
S      3 -0.0000000000000  0.0000000000000 -0.2502220000000 1.0   0.14
S      3 -0.0000000000000  0.0000000000000 -0.5000000000000 1.0  -0.08
Fe     4 -0.5000000000000  0.5000000000000  0.3677290000000 1.0   3.24
Fe     4 -0.5000000000000 -0.5000000000000 -0.3677290000000 1.0   3.24
Fe     4  0.5000000000000  0.0000000000000  0.0000000000000 1.0   3.34
END
