TITL LFSO-Li4Fe3S2O3-201001-122846-b091a4 -0.0050 401.982482 -1.06203610E+004 17.6342 18.4311 24 (Pmn21) n - 1
REM
REM Run started: Thu, 01 Oct 2020 15:28:03 +0100 in /lustre/scratch/uccabz1/launch_tmp/launcher_2020-10-01-11-28-44-970862
REM CASTEP 20.1 from code version af48c487+ pr-geom-scf-spinfix Tue Jun 2 15:39:59 2020 +0100
REM Functional Perdew Burke Ernzerhof Relativity Koelling-Harmon Dispersion off
REM Cut-off 340.0000 eV Grid scale 1.7500 Gmax 16.5316 1/A FBSC none
REM MP grid 3 2 3 Offset 0.000 0.000 0.000 No. kpts 4 Spacing 0.07
REM Total runtime: 10825.2 s
REM Overall efficiency: 76.5385 %
REM
REM
REM
REM compiler GCC version 4.9.2
REM options -cpp -iprefix /lustre/shared/ucl/apps/gcc/4.9.2/bin/../lib/gcc/x86_64-unknown-linux-gnu/4.9.2/ -mtune=corei7 -march=x86-64 -g -Og
REM COMMAND_LINE
REM seed 1457733664 -1720919109 1472814360 481416365 1049398992 1072750243 1541864789 1004144109 -248695570 -1955197992 489305126 1622723280
REM
REM S 3|1.8|5|6|7|30:31:32(qc=5)
REM O 2|1.5|12|13|15|20:21(qc=5)
REM Li 1|1.3|8|9|10|10U:20(qc=5)
REM Fe 3|2.2|2.0|1.0|8|9|10|40:41:32(qc=5)
REM 
CELL 1.54180    6.37914    9.01897    6.98695   90.00000   90.00000   90.00000
LATT -1
SFAC Li O  S  Fe 
Li     1 -0.2659980000000 -0.1994170000000  0.1991450000000 1.0  -0.01
Li     1  0.2340020000000  0.1994170000000  0.3008550000000 1.0  -0.01
Li     1  0.2340020000000  0.1994170000000 -0.3008550000000 1.0  -0.01
Li     1 -0.2659980000000 -0.1994170000000 -0.1991450000000 1.0  -0.01
Li     1 -0.2052450000000  0.1761710000000  0.3051490000000 1.0  -0.06
Li     1  0.2947550000000 -0.1761710000000  0.1948510000000 1.0  -0.06
Li     1  0.2947550000000 -0.1761710000000 -0.1948510000000 1.0  -0.06
Li     1 -0.2052450000000  0.1761710000000 -0.3051490000000 1.0  -0.06
O      2  0.3518490000000  0.4063770000000 -0.2169670000000 1.0   0.22
O      2 -0.1481510000000 -0.4063770000000 -0.2830330000000 1.0   0.22
O      2 -0.1481510000000 -0.4063770000000  0.2830330000000 1.0   0.22
O      2  0.3518490000000  0.4063770000000  0.2169670000000 1.0   0.22
O      2  0.4919790000000 -0.2410110000000  0.0000000000000 1.0   0.19
O      2 -0.0080210000000  0.2410110000000  0.5000000000000 1.0   0.19
S      3  0.0087070000000 -0.0103750000000  0.1502020000000 1.0   0.00
S      3  0.5087070000000  0.0103750000000  0.3497980000000 1.0   0.00
S      3  0.5087070000000  0.0103750000000 -0.3497980000000 1.0   0.00
S      3  0.0087070000000 -0.0103750000000 -0.1502020000000 1.0   0.00
Fe     4  0.1043140000000  0.5112860000000 -0.2048090000000 1.0   2.79
Fe     4  0.6043140000000 -0.5112860000000 -0.2951910000000 1.0   2.79
Fe     4  0.6043140000000 -0.5112860000000  0.2951910000000 1.0   2.79
Fe     4  0.1043140000000  0.5112860000000  0.2048090000000 1.0   2.79
Fe     4  0.4060490000000  0.5669720000000  0.0000000000000 1.0   2.74
Fe     4 -0.0939510000000 -0.5669720000000  0.5000000000000 1.0   2.74
END
