TITL LFSO-Li3Fe3SO5-200926-114118-922041 0.1608 329.202573 -1.13709187E+004 -9.89866 24.5283 24 (Cc) n - 1
REM
REM Run started: Sun, 27 Sep 2020 02:22:27 +0100 in /lustre/scratch/uccabz1/launch_tmp/launcher_2020-09-26-10-41-15-876418
REM CASTEP 20.1 from code version af48c487+ pr-geom-scf-spinfix Tue Jun 2 15:39:59 2020 +0100
REM Functional Perdew Burke Ernzerhof Relativity Koelling-Harmon Dispersion off
REM Cut-off 340.0000 eV Grid scale 1.7500 Gmax 16.5316 1/A FBSC none
REM MP grid 2 2 3 Offset 0.000 0.000 0.000 No. kpts 5 Spacing 0.07
REM Total runtime: 56764.1 s
REM Overall efficiency: 69.8333 %
REM
REM
REM
REM compiler GCC version 4.9.2
REM options -cpp -iprefix /lustre/shared/ucl/apps/gcc/4.9.2/bin/../lib/gcc/x86_64-unknown-linux-gnu/4.9.2/ -mtune=corei7 -march=x86-64 -g -Og
REM COMMAND_LINE
REM seed -1786267044 -726769573 -1737169848 -354509180 -1510861473 1402317997 1765223384 -1594780780 -1019140540 -1650811725 243123391 -1980147127
REM
REM S 3|1.8|5|6|7|30:31:32(qc=5)
REM O 2|1.5|12|13|15|20:21(qc=5)
REM Li 1|1.3|8|9|10|10U:20(qc=5)
REM Fe 3|2.2|2.0|1.0|8|9|10|40:41:32(qc=5)
REM 
CELL 1.54180    7.99775    7.99775    5.78204  108.55684  108.55684   76.97632
LATT -1
SFAC Li O  S  Fe 
Li     1  0.3082180000000 -0.1101650000000 -0.4515070000000 1.0  -0.01
Li     1  0.3898350000000 -0.1917820000000  0.0484930000000 1.0  -0.01
Li     1  0.1737530000000 -0.4502430000000 -0.4089950000000 1.0  -0.01
Li     1  0.0497570000000 -0.3262470000000  0.0910050000000 1.0  -0.01
Li     1 -0.1822690000000 -0.5288250000000  0.1736420000000 1.0   0.00
Li     1 -0.0288250000000  0.3177310000000 -0.3263580000000 1.0   0.00
O      2  0.3263130000000  0.0146890000000  0.3204890000000 1.0  -0.44
O      2  0.5146890000000 -0.1736870000000 -0.1795110000000 1.0  -0.44
O      2  0.1103770000000 -0.2380770000000  0.4651260000000 1.0   0.34
O      2  0.2619230000000  0.6103770000000 -0.0348740000000 1.0   0.34
O      2 -0.1385270000000 -0.4818920000000 -0.1087110000000 1.0  -0.39
O      2  0.0181080000000  0.3614730000000  0.3912890000000 1.0  -0.39
O      2 -0.3808130000000 -0.4128880000000  0.3524590000000 1.0   0.01
O      2  0.0871120000000  0.1191870000000 -0.1475410000000 1.0   0.01
O      2  0.3558900000000  0.3520480000000 -0.6921040000000 1.0  -0.20
O      2 -0.1479520000000 -0.1441100000000 -0.1921040000000 1.0  -0.20
S      3 -0.2346650000000  0.0662650000000  0.3760010000000 1.0  -0.19
S      3 -0.4337350000000  0.2653350000000 -0.1239990000000 1.0  -0.19
Fe     4 -0.2945260000000 -0.3496450000000 -0.3037850000000 1.0  -3.75
Fe     4  0.1503550000000  0.2054740000000  0.1962150000000 1.0  -3.75
Fe     4  0.4302990000000  0.4746450000000  0.1428440000000 1.0   3.27
Fe     4 -0.0253550000000 -0.0697010000000 -0.3571560000000 1.0   3.27
Fe     4 -0.3298780000000 -0.0029700000000 -0.0452750000000 1.0  -3.56
Fe     4 -0.5029700000000  0.1701220000000 -0.5452750000000 1.0  -3.56
END
