TITL LFSO-Li4Fe2SO3-200910-215231-173113 -0.0786 367.550231 -8.28615790E+003 15.7196 16.0916 20 (Cm) n - 1
REM
REM Run started: Fri, 11 Sep 2020 14:29:17 +0100 in /lustre/scratch/uccabz1/launch_tmp/launcher_2020-09-10-20-52-29-489863
REM CASTEP 20.1 from code version af48c487+ pr-geom-scf-spinfix Tue Jun 2 15:39:59 2020 +0100
REM Functional Perdew Burke Ernzerhof Relativity Koelling-Harmon Dispersion off
REM Cut-off 340.0000 eV Grid scale 1.7500 Gmax 16.5316 1/A FBSC none
REM MP grid 2 3 3 Offset 0.000 0.000 0.000 No. kpts 9 Spacing 0.07
REM Total runtime: 65648.2 s
REM Overall efficiency: 98.5833 %
REM
REM
REM
REM compiler GCC version 4.9.2
REM options -cpp -iprefix /lustre/shared/ucl/apps/gcc/4.9.2/bin/../lib/gcc/x86_64-unknown-linux-gnu/4.9.2/ -mtune=corei7 -march=x86-64 -g -Og
REM COMMAND_LINE
REM seed 336630112 341723504 -1732394665 -1586454928 857174320 1378853298 -1504368472 -934772053 31248148 -784691981 1414676300 317447
REM
REM S 3|1.8|5|6|7|30:31:32(qc=5)
REM O 2|1.5|12|13|15|20:21(qc=5)
REM Li 1|1.3|8|9|10|10U:20(qc=5)
REM Fe 3|2.2|2.0|1.0|8|9|10|40:41:32(qc=5)
REM 
CELL 1.54180    9.75927    6.12481    8.10031  104.28267  127.04205   90.00000
LATT -1
SFAC Li O  S  Fe 
Li     1 -0.0595880000000  0.3339290000000  0.4010630000000 1.0  -0.04
Li     1  0.4606510000000  0.3339290000000  0.4010630000000 1.0  -0.04
Li     1  0.1271880000000 -0.2239880000000  0.5749390000000 1.0   0.02
Li     1  0.4477510000000 -0.2239880000000  0.5749390000000 1.0   0.02
Li     1 -0.2335100000000 -0.0894380000000 -0.1065530000000 1.0  -0.02
Li     1  0.1269570000000 -0.0894380000000 -0.1065530000000 1.0  -0.02
Li     1  0.3741370000000 -0.1689480000000  0.1896520000000 1.0   0.04
Li     1 -0.1844860000000 -0.1689480000000  0.1896520000000 1.0   0.04
O      2 -0.1122510000000  0.1069520000000  0.1647080000000 1.0   0.39
O      2  0.2769590000000  0.1069520000000  0.1647080000000 1.0   0.39
O      2  0.3563730000000 -0.4050800000000  0.2996400000000 1.0   0.28
O      2 -0.0567330000000 -0.4050800000000  0.2996400000000 1.0   0.28
O      2 -0.4031600000000 -0.2873480000000 -0.1539100000000 1.0   0.32
O      2  0.2492490000000 -0.2873480000000 -0.1539100000000 1.0   0.32
S      3 -0.3595400000000  0.1565910000000 -0.3197010000000 1.0   0.15
S      3  0.0398390000000  0.1565910000000 -0.3197010000000 1.0   0.15
Fe     4 -0.4482940000000  0.4242090000000 -0.1772250000000 1.0   3.26
Fe     4  0.2710680000000  0.4242090000000 -0.1772250000000 1.0   3.26
Fe     4 -0.1312160000000  0.3506770000000  0.0630620000000 1.0   3.45
Fe     4  0.1942780000000  0.3506770000000  0.0630620000000 1.0   3.45
END
