TITL LFSO-LiFe3S4O-200909-100403-0bd6d0 0.0707 312.704168 -8887.378972992 -4.99284 5.80041 18 (P3) n - 1
REM
REM Run started: Thu, 10 Sep 2020 07:44:07 +0100 in /lustre/scratch/uccabz1/launch_tmp/launcher_2020-09-09-15-27-45-505345
REM CASTEP 20.1 from code version af48c487+ pr-geom-scf-spinfix Tue Jun 2 15:39:59 2020 +0100
REM Functional Perdew Burke Ernzerhof Relativity Koelling-Harmon Dispersion off
REM Cut-off 340.0000 eV Grid scale 1.7500 Gmax 16.5316 1/A FBSC none
REM MP grid 4 4 2 Offset 0.000 0.000 0.000 No. kpts 16 Spacing 0.07
REM Total runtime: 73319.7 s
REM Overall efficiency: 82.2727 %
REM
REM
REM
REM compiler GCC version 4.9.2
REM options -cpp -iprefix /lustre/shared/ucl/apps/gcc/4.9.2/bin/../lib/gcc/x86_64-unknown-linux-gnu/4.9.2/ -mtune=corei7 -march=x86-64 -g -Og
REM COMMAND_LINE
REM seed -1509005022 695370700 94910604 -1407685569 -243803550 -352370507 -1876572936 -545162592 -511598222 1350996460 1451243853 -902883133
REM
REM S 3|1.8|5|6|7|30:31:32(qc=5)
REM O 2|1.5|12|13|15|20:21(qc=5)
REM Li 1|1.3|8|9|10|10U:20(qc=5)
REM Fe 3|2.2|2.0|1.0|8|9|10|40:41:32(qc=5)
REM 
CELL 1.54180    5.33073    5.33073   12.70662   90.00000   90.00000  120.00000
LATT -1
SFAC Li O  S  Fe 
Li     1  0.3333330000000 -0.3333330000000  0.2039490000000 1.0  -0.00
Li     1 -0.3333340000000  0.3333340000000  0.2687870000000 1.0   0.00
O      2 -0.0000000000000  0.0000000000000  0.1140880000000 1.0   0.00
O      2 -0.3333340000000  0.3333340000000  0.1217600000000 1.0   0.00
S      3  0.1626080000000 -0.1611590000000  0.3592600000000 1.0  -0.00
S      3  0.1611590000000  0.3237680000000  0.3592600000000 1.0  -0.00
S      3 -0.3237680000000 -0.1626080000000  0.3592600000000 1.0  -0.00
S      3 -0.3505490000000 -0.3358000000000 -0.0677380000000 1.0   0.00
S      3  0.3358000000000 -0.0147480000000 -0.0677380000000 1.0   0.00
S      3  0.0147480000000  0.3505490000000 -0.0677380000000 1.0   0.00
S      3  0.3333330000000 -0.3333330000000 -0.4057630000000 1.0   0.00
S      3 -0.3333340000000  0.3333340000000 -0.4019460000000 1.0   0.00
Fe     4  0.3273900000000  0.3166690000000  0.0376740000000 1.0  -0.00
Fe     4 -0.3166690000000  0.0107220000000  0.0376740000000 1.0  -0.00
Fe     4 -0.0107220000000 -0.3273900000000  0.0376740000000 1.0  -0.00
Fe     4  0.5007570000000  0.4988070000000  0.4775840000000 1.0  -0.01
Fe     4 -0.4988070000000  0.0019520000000  0.4775840000000 1.0  -0.01
Fe     4 -0.0019520000000 -0.5007570000000  0.4775840000000 1.0  -0.01
END
