TITL LFSO-Li2Fe3S3O-200912-164032-93275b -0.0344 307.584637 -8.68055792E+003 -18.7984 19.1143 18 (Pc) n - 1
REM
REM Run started: Sun, 13 Sep 2020 07:39:55 +0100 in /lustre/scratch/uccabz1/launch_tmp/launcher_2020-09-12-15-40-28-609642
REM CASTEP 20.1 from code version af48c487+ pr-geom-scf-spinfix Tue Jun 2 15:39:59 2020 +0100
REM Functional Perdew Burke Ernzerhof Relativity Koelling-Harmon Dispersion off
REM Cut-off 340.0000 eV Grid scale 1.7500 Gmax 16.5316 1/A FBSC none
REM MP grid 3 3 3 Offset 0.000 0.000 0.000 No. kpts 10 Spacing 0.07
REM Total runtime: 58068.8 s
REM Overall efficiency: 81.3636 %
REM
REM
REM
REM compiler GCC version 4.9.2
REM options -cpp -iprefix /lustre/shared/ucl/apps/gcc/4.9.2/bin/../lib/gcc/x86_64-unknown-linux-gnu/4.9.2/ -mtune=corei7 -march=x86-64 -g -Og
REM COMMAND_LINE
REM seed 2012414569 45797759 -1578513050 1208321157 -819583805 -685168741 -1247658497 -771582126 1311340668 1535272859 -1843651030 -1284532805
REM
REM S 3|1.8|5|6|7|30:31:32(qc=5)
REM O 2|1.5|12|13|15|20:21(qc=5)
REM Li 1|1.3|8|9|10|10U:20(qc=5)
REM Fe 3|2.2|2.0|1.0|8|9|10|40:41:32(qc=5)
REM 
CELL 1.54180    6.89380    6.83429    6.52887   90.62006   90.00000   90.00000
LATT -1
SFAC Li O  S  Fe 
Li     1 -0.4385550000000 -0.2347790000000 -0.0408860000000 1.0   0.03
Li     1  0.4385550000000 -0.2347790000000  0.4591140000000 1.0   0.03
Li     1 -0.3614410000000  0.4007940000000  0.2646550000000 1.0   0.02
Li     1  0.3614410000000  0.4007940000000 -0.2353450000000 1.0   0.02
O      2 -0.3854580000000 -0.3234670000000  0.2443250000000 1.0  -0.31
O      2  0.3854580000000 -0.3234670000000 -0.2556750000000 1.0  -0.31
S      3  0.1379570000000 -0.1433870000000  0.1687930000000 1.0  -0.16
S      3 -0.1379570000000 -0.1433870000000 -0.3312070000000 1.0  -0.16
S      3 -0.4774720000000  0.1688760000000  0.0086980000000 1.0  -0.27
S      3  0.4774720000000  0.1688760000000 -0.4913020000000 1.0  -0.27
S      3  0.0014740000000  0.3244560000000  0.3585490000000 1.0  -0.09
S      3 -0.0014740000000  0.3244560000000 -0.1414510000000 1.0  -0.09
Fe     4  0.0531800000000 -0.4630490000000  0.1127880000000 1.0  -2.50
Fe     4 -0.0531800000000 -0.4630490000000 -0.3872120000000 1.0  -2.50
Fe     4  0.1507650000000 -0.2406530000000 -0.1788300000000 1.0  -3.11
Fe     4 -0.1507650000000 -0.2406530000000  0.3211700000000 1.0  -3.11
Fe     4  0.2805900000000  0.1785290000000  0.2363790000000 1.0  -3.00
Fe     4 -0.2805900000000  0.1785290000000 -0.2636210000000 1.0  -3.00
END
