TITL LFSO-LiFeSO-200909-030430-d82122 0.0120 244.548010 -7.22262725E+003 6.63357 7.10597 16 (P21/c) n - 1
REM
REM Run started: Wed, 09 Sep 2020 04:36:52 +0100 in /lustre/scratch/uccabz1/launch_tmp/launcher_2020-09-09-02-04-28-411568
REM CASTEP 20.1 from code version af48c487+ pr-geom-scf-spinfix Tue Jun 2 15:39:59 2020 +0100
REM Functional Perdew Burke Ernzerhof Relativity Koelling-Harmon Dispersion off
REM Cut-off 340.0000 eV Grid scale 1.7500 Gmax 16.5316 1/A FBSC none
REM MP grid 3 3 3 Offset 0.000 0.000 0.000 No. kpts 10 Spacing 0.07
REM Total runtime: 6599.41 s
REM Overall efficiency: 79.5714 %
REM
REM
REM
REM compiler GCC version 4.9.2
REM options -cpp -iprefix /lustre/shared/ucl/apps/gcc/4.9.2/bin/../lib/gcc/x86_64-unknown-linux-gnu/4.9.2/ -mtune=corei7 -march=x86-64 -g -Og
REM COMMAND_LINE
REM seed -1111121856 2030428084 2028529155 -1774973079 1520931223 627907672 976292519 -977000612 -87059225 1521066767 -1410767059 -784768735
REM
REM S 3|1.8|5|6|7|30:31:32(qc=5)
REM O 2|1.5|12|13|15|20:21(qc=5)
REM Li 1|1.3|8|9|10|10U:20(qc=5)
REM Fe 3|2.2|2.0|1.0|8|9|10|40:41:32(qc=5)
REM 
CELL 1.54180    7.04481    6.80331    5.90857   90.00000   90.00000  120.28149
LATT -1
SFAC Li O  S  Fe 
Li     1 -0.3087070000000 -0.2790710000000 -0.0503030000000 1.0   0.01
Li     1 -0.1912930000000 -0.2209290000000  0.4496970000000 1.0   0.01
Li     1  0.3087070000000  0.2790710000000  0.0503030000000 1.0   0.01
Li     1  0.1912930000000  0.2209290000000 -0.4496970000000 1.0   0.01
O      2  0.0718020000000  0.1961570000000  0.2614990000000 1.0   0.25
O      2  0.4281980000000  0.3038430000000 -0.2385010000000 1.0   0.25
O      2 -0.0718020000000 -0.1961570000000 -0.2614990000000 1.0   0.25
O      2 -0.4281980000000 -0.3038430000000  0.2385010000000 1.0   0.25
S      3  0.1178300000000 -0.3031340000000  0.2148360000000 1.0  -0.04
S      3  0.3821700000000 -0.1968660000000 -0.2851640000000 1.0  -0.04
S      3 -0.1178300000000  0.3031340000000 -0.2148360000000 1.0  -0.04
S      3 -0.3821700000000  0.1968660000000  0.2851640000000 1.0  -0.04
Fe     4 -0.0536730000000  0.3364090000000  0.1442440000000 1.0   1.43
Fe     4 -0.4463270000000  0.1635910000000 -0.3557560000000 1.0   1.43
Fe     4  0.0536730000000 -0.3364090000000 -0.1442440000000 1.0   1.43
Fe     4  0.4463270000000 -0.1635910000000  0.3557560000000 1.0   1.43
END
