TITL LFSO-LiFe3S4O-200909-084929-789e08 -0.0032 175.997237 -4.44334962E+003 -5.02585 5.66474 9 (Cmmm) n - 1
REM
REM Run started: Wed, 09 Sep 2020 10:10:08 +0100 in /lustre/scratch/uccabz1/launch_tmp/launcher_2020-09-09-07-49-27-646314
REM CASTEP 20.1 from code version af48c487+ pr-geom-scf-spinfix Tue Jun 2 15:39:59 2020 +0100
REM Functional Perdew Burke Ernzerhof Relativity Koelling-Harmon Dispersion off
REM Cut-off 340.0000 eV Grid scale 1.7500 Gmax 16.5316 1/A FBSC none
REM MP grid 5 3 2 Offset 0.000 0.000 0.000 No. kpts 8 Spacing 0.07
REM Total runtime: 5569.1 s
REM Overall efficiency: 96 %
REM
REM
REM
REM compiler GCC version 4.9.2
REM options -cpp -iprefix /lustre/shared/ucl/apps/gcc/4.9.2/bin/../lib/gcc/x86_64-unknown-linux-gnu/4.9.2/ -mtune=corei7 -march=x86-64 -g -Og
REM COMMAND_LINE
REM seed -1402337922 -1311456135 -1772181263 883207167 -428651292 1044357941 1447661324 -1140839276 -700951988 2089637983 1418502033 2103578580
REM
REM S 3|1.8|5|6|7|30:31:32(qc=5)
REM O 2|1.5|12|13|15|20:21(qc=5)
REM Li 1|1.3|8|9|10|10U:20(qc=5)
REM Fe 3|2.2|2.0|1.0|8|9|10|40:41:32(qc=5)
REM 
CELL 1.54180    3.60983    6.45202    7.87080   90.00000   90.00000  106.24492
LATT -1
SFAC Li O  S  Fe 
Li     1  0.5000000000000 -0.0000000000000 -0.5000000000000 1.0   0.07
O      2 -0.0000000000000 -0.0000000000000  0.0000000000000 1.0  -0.18
S      3 -0.3827070000000  0.2345860000000  0.2425140000000 1.0   0.03
S      3  0.3827070000000 -0.2345860000000  0.2425140000000 1.0   0.03
S      3 -0.3827070000000  0.2345860000000 -0.2425140000000 1.0   0.03
S      3  0.3827070000000 -0.2345860000000 -0.2425140000000 1.0   0.03
Fe     4 -0.0000000000000 -0.0000000000000  0.2410380000000 1.0  -1.88
Fe     4  0.0000000000000  0.0000000000000 -0.2410380000000 1.0  -1.88
Fe     4  0.5000000000000 -0.0000000000000  0.0000000000000 1.0  -1.27
END
