TITL LFSO-Li6FeSO3-200909-225452-31167f -0.1440 144.757215 -3.67802822E+003 -2.66668 3.01022 11 (C222) n - 1
REM
REM Run started: Thu, 10 Sep 2020 01:03:21 +0100 in /lustre/scratch/uccabz1/launch_tmp/launcher_2020-09-09-21-54-50-406130
REM CASTEP 20.1 from code version af48c487+ pr-geom-scf-spinfix Tue Jun 2 15:39:59 2020 +0100
REM Functional Perdew Burke Ernzerhof Relativity Koelling-Harmon Dispersion off
REM Cut-off 340.0000 eV Grid scale 1.7500 Gmax 16.5316 1/A FBSC none
REM MP grid 3 3 4 Offset 0.000 0.000 0.000 No. kpts 12 Spacing 0.07
REM Total runtime: 8695.59 s
REM Overall efficiency: 95.6667 %
REM
REM
REM
REM compiler GCC version 4.9.2
REM options -cpp -iprefix /lustre/shared/ucl/apps/gcc/4.9.2/bin/../lib/gcc/x86_64-unknown-linux-gnu/4.9.2/ -mtune=corei7 -march=x86-64 -g -Og
REM COMMAND_LINE
REM seed 1283940282 1187545949 1174142641 -242598219 -487417940 -287279181 -1174650848 1290592156 1320640882 1522325904 -111645768 869136170
REM
REM S 3|1.8|5|6|7|30:31:32(qc=5)
REM O 2|1.5|12|13|15|20:21(qc=5)
REM Li 1|1.3|8|9|10|10U:20(qc=5)
REM Fe 3|2.2|2.0|1.0|8|9|10|40:41:32(qc=5)
REM 
CELL 1.54180    4.67443    7.92724    5.56517  135.41575   90.00000   90.00000
LATT -1
SFAC Li O  S  Fe 
Li     1  0.2894010000000  0.2336960000000  0.1651040000000 1.0   0.04
Li     1  0.2894010000000 -0.2336960000000 -0.1651040000000 1.0   0.04
Li     1 -0.2894010000000 -0.0685920000000  0.1651040000000 1.0   0.04
Li     1 -0.2894010000000  0.0685920000000 -0.1651040000000 1.0   0.04
Li     1  0.0000000000000 -0.2297430000000  0.5405140000000 1.0  -0.01
Li     1  0.0000000000000  0.2297430000000 -0.5405140000000 1.0  -0.01
O      2 -0.5000000000000  0.2545900000000 -0.4908210000000 1.0  -0.12
O      2 -0.5000000000000 -0.2545900000000  0.4908210000000 1.0  -0.12
O      2  0.0000000000000  0.0000000000000  0.0000000000000 1.0  -0.00
S      3  0.0000000000000  0.5000000000000  0.0000000000000 1.0  -0.01
Fe     4 -0.5000000000000 -0.5000000000000  0.0000000000000 1.0  -2.54
END
