TITL LFSO-LiFe3S3O2-200909-150712-c1ab43 -0.0233 297.668436 -9.15574785E+003 -8.04661 11.9494 18 (P3) n - 1
REM
REM Run started: Thu, 10 Sep 2020 02:04:17 +0100 in /lustre/scratch/uccabz1/launch_tmp/launcher_2020-09-09-14-07-10-018350
REM CASTEP 20.1 from code version af48c487+ pr-geom-scf-spinfix Tue Jun 2 15:39:59 2020 +0100
REM Functional Perdew Burke Ernzerhof Relativity Koelling-Harmon Dispersion off
REM Cut-off 340.0000 eV Grid scale 1.7500 Gmax 16.5316 1/A FBSC none
REM MP grid 3 3 2 Offset 0.000 0.000 0.000 No. kpts 5 Spacing 0.07
REM Total runtime: 39705.4 s
REM Overall efficiency: 78.4444 %
REM
REM
REM
REM compiler GCC version 4.9.2
REM options -cpp -iprefix /lustre/shared/ucl/apps/gcc/4.9.2/bin/../lib/gcc/x86_64-unknown-linux-gnu/4.9.2/ -mtune=corei7 -march=x86-64 -g -Og
REM COMMAND_LINE
REM seed 1967885838 -1606583369 1442268961 1511699080 -1769875313 -925306795 -335009481 -932365590 -629674053 -2076632604 -1682776490 44084677
REM
REM S 3|1.8|5|6|7|30:31:32(qc=5)
REM O 2|1.5|12|13|15|20:21(qc=5)
REM Li 1|1.3|8|9|10|10U:20(qc=5)
REM Fe 3|2.2|2.0|1.0|8|9|10|40:41:32(qc=5)
REM 
CELL 1.54180    5.99358    5.99358    9.56819   90.00000   90.00000  120.00000
LATT -1
SFAC Li O  S  Fe 
Li     1 -0.3333330000000  0.3333330000000 -0.3061710000000 1.0   0.00
Li     1  0.3333330000000 -0.3333330000000  0.3140830000000 1.0  -0.02
O      2 -0.5486120000000 -0.5325710000000 -0.2544060000000 1.0  -0.35
O      2  0.5325710000000 -0.0160410000000 -0.2544060000000 1.0  -0.35
O      2  0.0160410000000  0.5486120000000 -0.2544060000000 1.0  -0.35
O      2  0.0000000000000 -0.0000000000000 -0.1757150000000 1.0  -0.21
S      3  0.3834630000000 -0.0039670000000  0.0523650000000 1.0  -0.01
S      3  0.0039670000000  0.3874300000000  0.0523650000000 1.0  -0.01
S      3 -0.3874300000000 -0.3834630000000  0.0523650000000 1.0  -0.01
S      3  0.3955290000000  0.2819840000000  0.3286280000000 1.0  -0.02
S      3 -0.2819840000000  0.1135440000000  0.3286280000000 1.0  -0.02
S      3 -0.1135440000000 -0.3955290000000  0.3286280000000 1.0  -0.02
Fe     4 -0.0068150000000 -0.2653790000000  0.1252680000000 1.0   0.61
Fe     4  0.2653790000000  0.2585630000000  0.1252680000000 1.0   0.61
Fe     4 -0.2585630000000  0.0068150000000  0.1252680000000 1.0   0.61
Fe     4  0.2194890000000 -0.1421940000000 -0.1661200000000 1.0  -2.83
Fe     4  0.1421940000000  0.3616820000000 -0.1661200000000 1.0  -2.83
Fe     4 -0.3616820000000 -0.2194890000000 -0.1661200000000 1.0  -2.83
END
