TITL LFSO-Li2Fe3S3O-200912-193418-a6714b 0.2866 552.285820 -8.67569814E+003 20.0902 20.5944 18 (Cm) n - 1
REM
REM Run started: Mon, 14 Sep 2020 12:34:55 +0100 in /lustre/scratch/uccabz1/launch_tmp/launcher_2020-09-14-10-43-42-228838
REM CASTEP 20.1 from code version af48c487+ pr-geom-scf-spinfix Tue Jun 2 15:39:59 2020 +0100
REM Functional Perdew Burke Ernzerhof Relativity Koelling-Harmon Dispersion off
REM Cut-off 340.0000 eV Grid scale 1.7500 Gmax 16.5316 1/A FBSC none
REM MP grid 3 2 2 Offset 0.000 0.000 0.000 No. kpts 5 Spacing 0.07
REM Total runtime: 79709.5 s
REM Overall efficiency: 74.1667 %
REM
REM
REM
REM compiler GCC version 4.9.2
REM options -cpp -iprefix /lustre/shared/ucl/apps/gcc/4.9.2/bin/../lib/gcc/x86_64-unknown-linux-gnu/4.9.2/ -mtune=corei7 -march=x86-64 -g -Og
REM COMMAND_LINE
REM seed 1415631163 -1054889254 -1293978025 700936538 1881934856 1905042655 959886497 -53077042 -325477440 644982669 211645513 1560120612
REM
REM S 3|1.8|5|6|7|30:31:32(qc=5)
REM O 2|1.5|12|13|15|20:21(qc=5)
REM Li 1|1.3|8|9|10|10U:20(qc=5)
REM Fe 3|2.2|2.0|1.0|8|9|10|40:41:32(qc=5)
REM 
CELL 1.54180    6.40376    9.45448    9.45448  102.62444   84.63301   84.63301
LATT -1
SFAC Li O  S  Fe 
Li     1 -0.1830260000000 -0.1701960000000  0.3758450000000 1.0  -0.04
Li     1 -0.1830260000000  0.3758450000000 -0.1701960000000 1.0  -0.04
Li     1  0.4639410000000 -0.2319710000000  0.1334720000000 1.0  -0.01
Li     1  0.4639410000000  0.1334720000000 -0.2319710000000 1.0  -0.01
O      2  0.3441540000000  0.1048600000000 -0.4010920000000 1.0   0.25
O      2  0.3441540000000 -0.4010920000000  0.1048600000000 1.0   0.25
S      3 -0.4161530000000  0.2644530000000 -0.0234570000000 1.0   0.40
S      3 -0.4161530000000 -0.0234570000000  0.2644530000000 1.0   0.40
S      3  0.1796080000000 -0.2524510000000  0.4355190000000 1.0   0.13
S      3  0.1796080000000  0.4355190000000 -0.2524510000000 1.0   0.13
S      3 -0.2152830000000  0.2579050000000 -0.4406030000000 1.0   0.17
S      3 -0.2152830000000 -0.4406030000000  0.2579050000000 1.0   0.17
Fe     4  0.3515820000000  0.4326370000000 -0.0463540000000 1.0   3.35
Fe     4  0.3515820000000 -0.0463540000000  0.4326370000000 1.0   3.35
Fe     4  0.4421820000000 -0.4345350000000  0.3247140000000 1.0   3.28
Fe     4  0.4421820000000  0.3247140000000 -0.4345350000000 1.0   3.28
Fe     4  0.1093400000000 -0.3998040000000  0.2287920000000 1.0   2.51
Fe     4  0.1093400000000  0.2287920000000 -0.3998040000000 1.0   2.51
END
