TITL LFSO-Li2FeSO-200912-025240-be8a8c 0.0628 293.061503 -8.01939997E+003 12.2359 12.8004 20 (P3) n - 1
REM
REM Run started: Sat, 12 Sep 2020 09:09:24 +0100 in /lustre/scratch/uccabz1/launch_tmp/launcher_2020-09-12-01-52-38-708869
REM CASTEP 20.1 from code version af48c487+ pr-geom-scf-spinfix Tue Jun 2 15:39:59 2020 +0100
REM Functional Perdew Burke Ernzerhof Relativity Koelling-Harmon Dispersion off
REM Cut-off 340.0000 eV Grid scale 1.7500 Gmax 16.5316 1/A FBSC none
REM MP grid 3 3 3 Offset 0.000 0.000 0.000 No. kpts 8 Spacing 0.07
REM Total runtime: 22728.6 s
REM Overall efficiency: 94.5 %
REM
REM
REM
REM compiler GCC version 4.9.2
REM options -cpp -iprefix /lustre/shared/ucl/apps/gcc/4.9.2/bin/../lib/gcc/x86_64-unknown-linux-gnu/4.9.2/ -mtune=corei7 -march=x86-64 -g -Og
REM COMMAND_LINE
REM seed 282388879 1089642206 40933270 -1876042580 108861536 -913932782 -1464446553 -1188303569 -1881151464 1355263055 308579427 210638471
REM
REM S 3|1.8|5|6|7|30:31:32(qc=5)
REM O 2|1.5|12|13|15|20:21(qc=5)
REM Li 1|1.3|8|9|10|10U:20(qc=5)
REM Fe 3|2.2|2.0|1.0|8|9|10|40:41:32(qc=5)
REM 
CELL 1.54180    7.06996    6.91840    6.91840  120.00000   90.00000   90.00000
LATT -1
SFAC Li O  S  Fe 
Li     1  0.3615330000000 -0.2209550000000 -0.3958080000000 1.0   0.03
Li     1  0.3615330000000 -0.1748530000000  0.2209550000000 1.0   0.03
Li     1  0.3615330000000  0.3958080000000  0.1748530000000 1.0   0.03
Li     1 -0.2367030000000 -0.5227330000000 -0.0520870000000 1.0  -0.01
Li     1 -0.2367030000000  0.4706460000000  0.5227330000000 1.0  -0.01
Li     1 -0.2367030000000  0.0520870000000 -0.4706460000000 1.0  -0.01
Li     1  0.1103660000000  0.3333330000000 -0.3333330000000 1.0   0.03
Li     1 -0.3401610000000  0.0000000000000 -0.0000000000000 1.0  -0.03
O      2 -0.2000440000000  0.1426250000000  0.2948010000000 1.0   0.14
O      2 -0.2000440000000  0.1521760000000 -0.1426250000000 1.0   0.14
O      2 -0.2000440000000 -0.2948010000000 -0.1521760000000 1.0   0.14
O      2  0.2522340000000 -0.3333330000000  0.3333330000000 1.0   0.22
S      3  0.2152180000000  0.1399690000000 -0.1728770000000 1.0   0.01
S      3  0.2152180000000 -0.3128460000000 -0.1399690000000 1.0   0.01
S      3  0.2152180000000  0.1728770000000  0.3128460000000 1.0   0.01
S      3 -0.3137920000000 -0.3333330000000  0.3333330000000 1.0   0.11
Fe     4 -0.0177880000000  0.2304450000000  0.1067120000000 1.0   2.82
Fe     4 -0.0177880000000 -0.1237330000000 -0.2304450000000 1.0   2.82
Fe     4 -0.0177880000000 -0.1067120000000  0.1237330000000 1.0   2.82
Fe     4  0.0049730000000 -0.3333330000000  0.3333330000000 1.0   2.91
END
