TITL LFSO-Li4Fe2S4O-200910-190740-a7c225 -0.1873 396.551519 -8.36295881E+003 12.1777 12.7664 22 (P21) n - 1
REM
REM Run started: Fri, 11 Sep 2020 19:37:35 +0100 in /lustre/scratch/uccabz1/launch_tmp/launcher_2020-09-10-18-07-38-708699
REM CASTEP 20.1 from code version af48c487+ pr-geom-scf-spinfix Tue Jun 2 15:39:59 2020 +0100
REM Functional Perdew Burke Ernzerhof Relativity Koelling-Harmon Dispersion off
REM Cut-off 340.0000 eV Grid scale 1.7500 Gmax 16.5316 1/A FBSC none
REM MP grid 3 2 4 Offset 0.000 0.000 0.000 No. kpts 8 Spacing 0.07
REM Total runtime: 95080.3 s
REM Overall efficiency: 94.5 %
REM
REM
REM
REM compiler GCC version 4.9.2
REM options -cpp -iprefix /lustre/shared/ucl/apps/gcc/4.9.2/bin/../lib/gcc/x86_64-unknown-linux-gnu/4.9.2/ -mtune=corei7 -march=x86-64 -g -Og
REM COMMAND_LINE
REM seed 600722935 -1219306671 -687163591 279216895 142627813 -1153992623 -1260391793 396684771 1608904338 1066806610 716358908 1701976224
REM
REM S 3|1.8|5|6|7|30:31:32(qc=5)
REM O 2|1.5|12|13|15|20:21(qc=5)
REM Li 1|1.3|8|9|10|10U:20(qc=5)
REM Fe 3|2.2|2.0|1.0|8|9|10|40:41:32(qc=5)
REM 
CELL 1.54180    6.67426   13.72089    6.27177  136.33525   90.00000   90.00000
LATT -1
SFAC Li O  S  Fe 
Li     1  0.1257940000000 -0.5410800000000 -0.3244890000000 1.0   0.02
Li     1 -0.3742060000000  0.5410800000000  0.3244890000000 1.0   0.02
Li     1 -0.2625700000000 -0.1126840000000 -0.3716160000000 1.0   0.03
Li     1  0.2374300000000  0.1126840000000  0.3716160000000 1.0   0.03
Li     1 -0.0695880000000  0.0130820000000  0.4321110000000 1.0  -0.02
Li     1  0.4304120000000 -0.0130820000000 -0.4321110000000 1.0  -0.02
Li     1 -0.3747320000000  0.6123460000000 -0.1004090000000 1.0   0.03
Li     1  0.1252680000000 -0.6123460000000  0.1004090000000 1.0   0.03
O      2  0.2180630000000 -0.0329090000000  0.3494800000000 1.0   0.32
O      2 -0.2819370000000  0.0329090000000 -0.3494800000000 1.0   0.32
S      3 -0.1041950000000  0.2445450000000 -0.3718490000000 1.0   0.02
S      3  0.3958050000000 -0.2445450000000  0.3718490000000 1.0   0.02
S      3  0.3300720000000 -0.3956940000000 -0.3684080000000 1.0   0.18
S      3 -0.1699280000000  0.3956940000000  0.3684080000000 1.0   0.18
S      3  0.4499880000000  0.3251320000000 -0.1957140000000 1.0   0.03
S      3 -0.0500120000000 -0.3251320000000  0.1957140000000 1.0   0.03
S      3 -0.1017580000000 -0.2232140000000 -0.1389440000000 1.0   0.06
S      3  0.3982420000000  0.2232140000000  0.1389440000000 1.0   0.06
Fe     4 -0.3365180000000  0.2173180000000 -0.1057000000000 1.0   2.78
Fe     4  0.1634820000000 -0.2173180000000  0.1057000000000 1.0   2.78
Fe     4 -0.3555100000000  0.2877630000000  0.4524020000000 1.0   2.62
Fe     4  0.1444900000000 -0.2877630000000 -0.4524020000000 1.0   2.62
END
