TITL LFSO-Li3Fe3S4O2-200929-110707-22eb38 -0.3933 372.585972 -1.05633980E+004 -2.35665 6.32235 24 (P3) n - 1
REM
REM Run started: Wed, 30 Sep 2020 15:32:29 +0100 in /lustre/scratch/uccabz1/launch_tmp/launcher_2020-09-30-14-25-01-242805
REM CASTEP 20.1 from code version af48c487+ pr-geom-scf-spinfix Tue Jun 2 15:39:59 2020 +0100
REM Functional Perdew Burke Ernzerhof Relativity Koelling-Harmon Dispersion off
REM Cut-off 340.0000 eV Grid scale 1.7500 Gmax 16.5316 1/A FBSC none
REM MP grid 3 3 2 Offset 0.000 0.000 0.000 No. kpts 5 Spacing 0.07
REM Total runtime: 62299 s
REM Overall efficiency: 70.6667 %
REM
REM
REM
REM compiler GCC version 4.9.2
REM options -cpp -iprefix /scratch/UCL/applications/gcc/4.9.2/bin/../lib/gcc/x86_64-unknown-linux-gnu/4.9.2/ -mtune=corei7 -march=x86-64 -g -O2
REM COMMAND_LINE
REM seed -353674454 918683565 1843184100 -2074827351 551281465 1008721929 -1647324186 661068128 1626174317 -1178091567 -1060574617 -1094562433
REM
REM S 3|1.8|5|6|7|30:31:32(qc=5)
REM O 2|1.5|12|13|15|20:21(qc=5)
REM Li 1|1.3|8|9|10|10U:20(qc=5)
REM Fe 3|2.2|2.0|1.0|8|9|10|40:41:32(qc=5)
REM 
CELL 1.54180    6.11557    6.11557   11.50330   90.00000   90.00000  120.00000
LATT -1
SFAC Li O  S  Fe 
Li     1  0.2722820000000  0.0316300000000  0.0546530000000 1.0  -0.02
Li     1 -0.0316300000000  0.2406510000000  0.0546530000000 1.0  -0.02
Li     1 -0.2406510000000 -0.2722820000000  0.0546530000000 1.0  -0.02
Li     1 -0.0340080000000 -0.2719180000000  0.2545050000000 1.0   0.00
Li     1  0.2719180000000  0.2379110000000  0.2545050000000 1.0   0.00
Li     1 -0.2379110000000  0.0340080000000  0.2545050000000 1.0   0.00
O      2  0.0293200000000  0.3244420000000  0.3398180000000 1.0   0.12
O      2 -0.3244420000000 -0.2951220000000  0.3398180000000 1.0   0.12
O      2  0.2951220000000 -0.0293200000000  0.3398180000000 1.0   0.12
O      2  0.0000000000000  0.0000000000000  0.1363880000000 1.0  -0.00
S      3 -0.3312630000000  0.0068030000000 -0.4502820000000 1.0  -0.05
S      3 -0.0068030000000 -0.3380650000000 -0.4502820000000 1.0  -0.05
S      3  0.3380650000000  0.3312630000000 -0.4502820000000 1.0  -0.05
S      3 -0.3257690000000 -0.1713800000000 -0.1704140000000 1.0  -0.15
S      3  0.1713800000000 -0.1543900000000 -0.1704140000000 1.0  -0.15
S      3  0.1543900000000  0.3257690000000 -0.1704140000000 1.0  -0.15
S      3 -0.3333330000000  0.3333330000000 -0.1720920000000 1.0   0.06
S      3 -0.3333330000000  0.3333330000000  0.1227080000000 1.0  -0.05
Fe     4  0.0042020000000  0.3368850000000 -0.5161120000000 1.0   0.47
Fe     4 -0.3368850000000 -0.3326830000000 -0.5161120000000 1.0   0.47
Fe     4  0.3326830000000 -0.0042020000000 -0.5161120000000 1.0   0.47
Fe     4  0.5092300000000 -0.0028990000000 -0.2724230000000 1.0  -1.17
Fe     4  0.0028990000000  0.5121290000000 -0.2724230000000 1.0  -1.17
Fe     4 -0.5121290000000 -0.5092300000000 -0.2724230000000 1.0  -1.17
END
