TITL LFSO-Li4Fe3SO4-200928-151250-fbc00a -0.0360 356.065817 -1.08900372E+004 17.5930 18.4288 24 (P21/c) n - 1
REM
REM Run started: Mon, 28 Sep 2020 23:09:52 +0100 in /lustre/scratch/uccabz1/launch_tmp/launcher_2020-09-28-14-12-48-956066
REM CASTEP 20.1 from code version af48c487+ pr-geom-scf-spinfix Tue Jun 2 15:39:59 2020 +0100
REM Functional Perdew Burke Ernzerhof Relativity Koelling-Harmon Dispersion off
REM Cut-off 340.0000 eV Grid scale 1.7500 Gmax 16.5316 1/A FBSC none
REM MP grid 4 2 3 Offset 0.000 0.000 0.000 No. kpts 6 Spacing 0.07
REM Total runtime: 28790.7 s
REM Overall efficiency: 91.5833 %
REM
REM
REM
REM compiler GCC version 4.9.2
REM options -cpp -iprefix /lustre/shared/ucl/apps/gcc/4.9.2/bin/../lib/gcc/x86_64-unknown-linux-gnu/4.9.2/ -mtune=corei7 -march=x86-64 -g -Og
REM COMMAND_LINE
REM seed 992689999 -974673628 -1272093078 930852754 -1826198670 1625897977 1607330744 -249021678 -1905975288 -724953524 1958873036 -126468579
REM
REM S 3|1.8|5|6|7|30:31:32(qc=5)
REM O 2|1.5|12|13|15|20:21(qc=5)
REM Li 1|1.3|8|9|10|10U:20(qc=5)
REM Fe 3|2.2|2.0|1.0|8|9|10|40:41:32(qc=5)
REM 
CELL 1.54180    4.86724   11.12994    6.87069   90.00000  106.93166   90.00000
LATT -1
SFAC Li O  S  Fe 
Li     1  0.0797090000000 -0.1076210000000 -0.4016400000000 1.0  -0.08
Li     1  0.4202910000000  0.3923790000000 -0.0983600000000 1.0  -0.08
Li     1 -0.0797090000000  0.1076210000000  0.4016400000000 1.0  -0.08
Li     1 -0.4202910000000 -0.3923790000000  0.0983600000000 1.0  -0.08
Li     1 -0.0104780000000 -0.2431260000000  0.1498520000000 1.0  -0.03
Li     1 -0.4895220000000  0.2568740000000  0.3501480000000 1.0  -0.03
Li     1  0.0104780000000  0.2431260000000 -0.1498520000000 1.0  -0.03
Li     1  0.4895220000000 -0.2568740000000 -0.3501480000000 1.0  -0.03
O      2 -0.2303600000000  0.1673110000000 -0.3910700000000 1.0   0.23
O      2 -0.2696400000000 -0.3326890000000 -0.1089300000000 1.0   0.23
O      2  0.2303600000000 -0.1673110000000  0.3910700000000 1.0   0.23
O      2  0.2696400000000  0.3326890000000  0.1089300000000 1.0   0.23
O      2 -0.0605590000000 -0.4101820000000  0.2704850000000 1.0   0.18
O      2  0.5605590000000  0.0898180000000  0.2295150000000 1.0   0.18
O      2  0.0605590000000  0.4101820000000 -0.2704850000000 1.0   0.18
O      2 -0.5605590000000 -0.0898180000000 -0.2295150000000 1.0   0.18
S      3  0.0000000000000 -0.0000000000000  0.0000000000000 1.0   0.08
S      3  0.5000000000000  0.5000000000000 -0.5000000000000 1.0   0.08
Fe     4 -0.1222140000000 -0.4657120000000 -0.1734280000000 1.0   2.65
Fe     4 -0.3777860000000  0.0342880000000 -0.3265720000000 1.0   2.65
Fe     4  0.1222140000000  0.4657120000000  0.1734280000000 1.0   2.65
Fe     4  0.3777860000000 -0.0342880000000  0.3265720000000 1.0   2.65
Fe     4  0.5000000000000 -0.0000000000000  0.0000000000000 1.0   2.81
Fe     4  0.0000000000000  0.5000000000000 -0.5000000000000 1.0   2.81
END
