TITL LFSO-Li2Fe3S3O-200912-213340-203eec 0.0446 168.107472 -4.33962975E+003 6.06437 6.58554 9 (P3) n - 1
REM
REM Run started: Sat, 12 Sep 2020 23:18:44 +0100 in /lustre/scratch/uccabz1/launch_tmp/launcher_2020-09-12-20-33-38-708913
REM CASTEP 20.1 from code version af48c487+ pr-geom-scf-spinfix Tue Jun 2 15:39:59 2020 +0100
REM Functional Perdew Burke Ernzerhof Relativity Koelling-Harmon Dispersion off
REM Cut-off 340.0000 eV Grid scale 1.7500 Gmax 16.5316 1/A FBSC none
REM MP grid 3 3 3 Offset 0.000 0.000 0.000 No. kpts 8 Spacing 0.07
REM Total runtime: 6757.86 s
REM Overall efficiency: 91 %
REM
REM
REM
REM compiler GCC version 4.9.2
REM options -cpp -iprefix /lustre/shared/ucl/apps/gcc/4.9.2/bin/../lib/gcc/x86_64-unknown-linux-gnu/4.9.2/ -mtune=corei7 -march=x86-64 -g -Og
REM COMMAND_LINE
REM seed 1501525692 -1584387704 -244544251 1361937861 -664673828 -1678049806 -273243365 -957261204 -1249305115 378599721 -2109235135 -204598852
REM
REM S 3|1.8|5|6|7|30:31:32(qc=5)
REM O 2|1.5|12|13|15|20:21(qc=5)
REM Li 1|1.3|8|9|10|10U:20(qc=5)
REM Fe 3|2.2|2.0|1.0|8|9|10|40:41:32(qc=5)
REM 
CELL 1.54180    5.22141    6.09725    6.09725  120.00000   90.00000   90.00000
LATT -1
SFAC Li O  S  Fe 
Li     1 -0.2524740000000  0.3333330000000 -0.3333330000000 1.0  -0.05
Li     1  0.7455250000000 -0.0000000000000  0.0000000000000 1.0  -0.15
O      2  0.0866600000000 -0.0000000000000  0.0000000000000 1.0   0.13
S      3 -0.5688200000000 -0.3987500000000  0.0014260000000 1.0   0.00
S      3 -0.5688200000000 -0.0014260000000 -0.4001760000000 1.0   0.00
S      3 -0.5688200000000  0.4001760000000  0.3987500000000 1.0   0.00
Fe     4  0.3171320000000 -0.2534730000000 -0.2511930000000 1.0   2.04
Fe     4  0.3171320000000  0.2511930000000 -0.0022800000000 1.0   2.04
Fe     4  0.3171320000000  0.0022800000000  0.2534730000000 1.0   2.04
END
