TITL LFSO-Li2Fe2S2O-200913-130011-fd8274 0.0729 421.838027 -9.50911970E+003 -21.1401 22.0683 21 (Amm2) n - 1
REM
REM Run started: Mon, 14 Sep 2020 03:22:51 +0100 in /lustre/scratch/uccabz1/launch_tmp/launcher_2020-09-13-12-00-09-220626
REM CASTEP 20.1 from code version af48c487+ pr-geom-scf-spinfix Tue Jun 2 15:39:59 2020 +0100
REM Functional Perdew Burke Ernzerhof Relativity Koelling-Harmon Dispersion off
REM Cut-off 340.0000 eV Grid scale 1.7500 Gmax 16.5316 1/A FBSC none
REM MP grid 3 2 2 Offset 0.000 0.000 0.000 No. kpts 4 Spacing 0.07
REM Total runtime: 56663.6 s
REM Overall efficiency: 98 %
REM
REM
REM
REM compiler GCC version 4.9.2
REM options -cpp -iprefix /lustre/shared/ucl/apps/gcc/4.9.2/bin/../lib/gcc/x86_64-unknown-linux-gnu/4.9.2/ -mtune=corei7 -march=x86-64 -g -Og
REM COMMAND_LINE
REM seed -1830940027 1001675297 -1247012077 2005504613 -746978917 1548468982 -1817367928 1002974339 723781245 -2109180879 1631067758 -857662006
REM
REM S 3|1.8|5|6|7|30:31:32(qc=5)
REM O 2|1.5|12|13|15|20:21(qc=5)
REM Li 1|1.3|8|9|10|10U:20(qc=5)
REM Fe 3|2.2|2.0|1.0|8|9|10|40:41:32(qc=5)
REM 
CELL 1.54180    5.88135    9.62782    9.62782  129.30618   90.00000   90.00000
LATT -1
SFAC Li O  S  Fe 
Li     1  0.2974860000000 -0.0508560000000 -0.2201410000000 1.0   0.05
Li     1 -0.2974860000000 -0.2201410000000 -0.0508560000000 1.0   0.05
Li     1  0.2974860000000 -0.2201410000000 -0.0508560000000 1.0   0.05
Li     1 -0.2974860000000 -0.0508560000000 -0.2201410000000 1.0   0.05
Li     1 -0.3002220000000  0.2774400000000  0.2774400000000 1.0   0.04
Li     1  0.3002220000000  0.2774400000000  0.2774400000000 1.0   0.04
O      2  0.5000000000000 -0.4398860000000  0.4130650000000 1.0  -0.51
O      2  0.5000000000000  0.4130650000000 -0.4398860000000 1.0  -0.51
O      2 -0.5000000000000 -0.2084120000000 -0.2084120000000 1.0  -0.22
S      3 -0.2058360000000 -0.3877060000000  0.0550210000000 1.0  -0.04
S      3  0.2058360000000  0.0550210000000 -0.3877060000000 1.0  -0.04
S      3 -0.2058360000000  0.0550210000000 -0.3877060000000 1.0  -0.04
S      3  0.2058360000000 -0.3877060000000  0.0550210000000 1.0  -0.04
S      3  0.5000000000000  0.0156800000000  0.2223490000000 1.0  -0.20
S      3  0.5000000000000  0.2223490000000  0.0156800000000 1.0  -0.20
Fe     4  0.3096550000000 -0.1178920000000  0.3196530000000 1.0  -3.13
Fe     4 -0.3096550000000  0.3196530000000 -0.1178920000000 1.0  -3.13
Fe     4  0.3096550000000  0.3196530000000 -0.1178920000000 1.0  -3.13
Fe     4 -0.3096550000000 -0.1178920000000  0.3196530000000 1.0  -3.13
Fe     4  0.3002150000000  0.5846150000000  0.5846150000000 1.0  -3.55
Fe     4 -0.3002150000000  0.5846150000000  0.5846150000000 1.0  -3.55
END
