TITL LFSO-Li2Fe3S2O2-200921-022945-0fb331 0.0169 287.482927 -8.94755544E+003 22.0161 22.2510 18 (R3) n - 1
REM
REM Run started: Mon, 21 Sep 2020 17:00:46 +0100 in /lustre/scratch/uccabz1/launch_tmp/launcher_2020-09-21-01-29-42-580660
REM CASTEP 20.1 from code version af48c487+ pr-geom-scf-spinfix Tue Jun 2 15:39:59 2020 +0100
REM Functional Perdew Burke Ernzerhof Relativity Koelling-Harmon Dispersion off
REM Cut-off 340.0000 eV Grid scale 1.7500 Gmax 16.5316 1/A FBSC none
REM MP grid 3 3 3 Offset 0.000 0.000 0.000 No. kpts 6 Spacing 0.07
REM Total runtime: 52556.5 s
REM Overall efficiency: 95.25 %
REM
REM
REM
REM compiler GCC version 4.9.2
REM options -cpp -iprefix /lustre/shared/ucl/apps/gcc/4.9.2/bin/../lib/gcc/x86_64-unknown-linux-gnu/4.9.2/ -mtune=corei7 -march=x86-64 -g -Og
REM COMMAND_LINE
REM seed 1466957457 1007235550 1574794198 1533131461 1278467693 834544397 -1580047474 175193594 523731758 -706109999 1265036762 -1804992312
REM
REM S 3|1.8|5|6|7|30:31:32(qc=5)
REM O 2|1.5|12|13|15|20:21(qc=5)
REM Li 1|1.3|8|9|10|10U:20(qc=5)
REM Fe 3|2.2|2.0|1.0|8|9|10|40:41:32(qc=5)
REM 
CELL 1.54180    6.75290    6.75290    6.75290  101.22663  101.22663  101.22663
LATT -1
SFAC Li O  S  Fe 
Li     1  0.1270940000000 -0.4363510000000  0.4314600000000 1.0  -0.01
Li     1 -0.4363510000000  0.4314600000000  0.1270940000000 1.0  -0.01
Li     1  0.4314600000000  0.1270940000000 -0.4363510000000 1.0  -0.01
Li     1  0.1806580000000  0.1806580000000  0.1806580000000 1.0   0.01
O      2 -0.2976380000000  0.0582410000000 -0.4355200000000 1.0   0.33
O      2  0.0582410000000 -0.4355200000000 -0.2976380000000 1.0   0.33
O      2 -0.4355200000000 -0.2976380000000  0.0582410000000 1.0   0.33
O      2 -0.1146280000000 -0.1146280000000 -0.1146280000000 1.0   0.33
S      3  0.0650380000000 -0.1139570000000  0.3432250000000 1.0   0.20
S      3 -0.1139570000000  0.3432250000000  0.0650380000000 1.0   0.20
S      3  0.3432250000000  0.0650380000000 -0.1139570000000 1.0   0.20
S      3  0.4560700000000  0.4560700000000  0.4560700000000 1.0   0.20
Fe     4 -0.3320150000000 -0.0134580000000 -0.0257940000000 1.0   3.22
Fe     4 -0.0134580000000 -0.0257940000000 -0.3320150000000 1.0   3.22
Fe     4 -0.0257940000000 -0.3320150000000 -0.0134580000000 1.0   3.22
Fe     4  0.3249290000000 -0.2920920000000 -0.1291150000000 1.0   3.41
Fe     4 -0.2920920000000 -0.1291150000000  0.3249290000000 1.0   3.41
Fe     4 -0.1291150000000  0.3249290000000 -0.2920920000000 1.0   3.41
END
