TITL LFSO-Li2Fe4SO4-200912-002531-f47f97 -0.0035 288.676860 -1.18191540E+004 24.2803 24.7600 22 (P21) n - 1
REM
REM Run started: Sun, 13 Sep 2020 12:30:57 +0100 in /lustre/scratch/uccabz1/launch_tmp/launcher_2020-09-11-23-25-28-932429
REM CASTEP 20.1 from code version af48c487+ pr-geom-scf-spinfix Tue Jun 2 15:39:59 2020 +0100
REM Functional Perdew Burke Ernzerhof Relativity Koelling-Harmon Dispersion off
REM Cut-off 340.0000 eV Grid scale 1.7500 Gmax 16.5316 1/A FBSC none
REM MP grid 3 3 2 Offset 0.000 0.000 0.000 No. kpts 6 Spacing 0.07
REM Total runtime: 130120 s
REM Overall efficiency: 98.4167 %
REM
REM
REM
REM compiler GCC version 4.9.2
REM options -cpp -iprefix /lustre/shared/ucl/apps/gcc/4.9.2/bin/../lib/gcc/x86_64-unknown-linux-gnu/4.9.2/ -mtune=corei7 -march=x86-64 -g -Og
REM COMMAND_LINE
REM seed 2058590335 1459074762 634718735 -149816876 -1908849789 -1285372203 -1035946374 -1871764777 985331945 1543330079 -1981566083 714431461
REM
REM S 3|1.8|5|6|7|30:31:32(qc=5)
REM O 2|1.5|12|13|15|20:21(qc=5)
REM Li 1|1.3|8|9|10|10U:20(qc=5)
REM Fe 3|2.2|2.0|1.0|8|9|10|40:41:32(qc=5)
REM 
CELL 1.54180    5.84688    5.40747   10.18942  116.35317   90.00000   90.00000
LATT -1
SFAC Li O  S  Fe 
Li     1 -0.1148080000000 -0.3356270000000  0.2680320000000 1.0   0.00
Li     1  0.3851920000000  0.3356270000000 -0.2680320000000 1.0   0.00
Li     1  0.1998440000000 -0.2563890000000 -0.4818370000000 1.0  -0.04
Li     1 -0.3001560000000  0.2563890000000  0.4818370000000 1.0  -0.04
O      2 -0.1678310000000  0.1893840000000 -0.1662120000000 1.0   0.17
O      2  0.3321690000000 -0.1893840000000  0.1662120000000 1.0   0.17
O      2 -0.3642800000000  0.4768530000000 -0.3184300000000 1.0   0.25
O      2  0.1357200000000 -0.4768530000000  0.3184300000000 1.0   0.25
O      2 -0.1434840000000 -0.0613240000000  0.1946980000000 1.0   0.23
O      2 -0.6434840000000  0.0613240000000 -0.1946980000000 1.0   0.23
O      2  0.6942410000000  0.3658690000000  0.1422890000000 1.0   0.07
O      2  0.1942410000000 -0.3658690000000 -0.1422890000000 1.0   0.07
S      3 -0.3936770000000  0.7717450000000  0.4663840000000 1.0   0.19
S      3  0.1063230000000 -0.7717450000000 -0.4663840000000 1.0   0.19
Fe     4  0.0540220000000 -0.0544330000000 -0.1550600000000 1.0   2.64
Fe     4 -0.4459780000000  0.0544330000000  0.1550600000000 1.0   2.64
Fe     4  0.5578360000000  0.2171240000000 -0.0378720000000 1.0   2.81
Fe     4  0.0578360000000 -0.2171240000000  0.0378720000000 1.0   2.81
Fe     4 -0.3537780000000 -0.1617610000000 -0.2952150000000 1.0   3.37
Fe     4  0.1462220000000  0.1617610000000  0.2952150000000 1.0   3.37
Fe     4 -0.0848830000000  0.4976910000000 -0.2372870000000 1.0   2.45
Fe     4  0.4151170000000 -0.4976910000000  0.2372870000000 1.0   2.45
END
