TITL LFSO-Li2Fe2SO2-200913-015653-fbdd58 0.1127 322.014953 -9.91740753E+003 -16.1421 16.7993 21 (Cm) n - 1
REM
REM Run started: Mon, 14 Sep 2020 07:23:39 +0100 in /lustre/scratch/uccabz1/launch_tmp/launcher_2020-09-14-05-24-24-981498
REM CASTEP 20.1 from code version af48c487+ pr-geom-scf-spinfix Tue Jun 2 15:39:59 2020 +0100
REM Functional Perdew Burke Ernzerhof Relativity Koelling-Harmon Dispersion off
REM Cut-off 340.0000 eV Grid scale 1.7500 Gmax 16.5316 1/A FBSC none
REM MP grid 4 4 2 Offset 0.000 0.000 0.000 No. kpts 10 Spacing 0.07
REM Total runtime: 105456 s
REM Overall efficiency: 70.8333 %
REM
REM
REM
REM compiler GCC version 4.9.2
REM options -cpp -iprefix /lustre/shared/ucl/apps/gcc/4.9.2/bin/../lib/gcc/x86_64-unknown-linux-gnu/4.9.2/ -mtune=corei7 -march=x86-64 -g -Og
REM COMMAND_LINE
REM seed -2047821280 -1757617716 52367997 1933325950 -923007117 1489285696 1365064458 1117242034 -1111488524 -1280767140 493235364 -1959887541
REM
REM S 3|1.8|5|6|7|30:31:32(qc=5)
REM O 2|1.5|12|13|15|20:21(qc=5)
REM Li 1|1.3|8|9|10|10U:20(qc=5)
REM Fe 3|2.2|2.0|1.0|8|9|10|40:41:32(qc=5)
REM 
CELL 1.54180    7.75635    7.75635    9.25074   95.99544   95.99544  142.30548
LATT -1
SFAC Li O  S  Fe 
Li     1 -0.2573230000000  0.3553250000000  0.4244400000000 1.0   0.01
Li     1  0.3553250000000 -0.2573230000000  0.4244400000000 1.0   0.01
Li     1 -0.1145310000000  0.1435160000000  0.1368420000000 1.0   0.02
Li     1  0.1435160000000 -0.1145310000000  0.1368420000000 1.0   0.02
Li     1  0.0308580000000 -0.1791450000000 -0.2873220000000 1.0   0.06
Li     1 -0.1791450000000  0.0308580000000 -0.2873220000000 1.0   0.06
O      2 -0.2755760000000  0.1256160000000 -0.4470210000000 1.0  -0.21
O      2  0.1256160000000 -0.2755760000000 -0.4470210000000 1.0  -0.21
O      2  0.2623160000000 -0.4870230000000  0.2456430000000 1.0   0.00
O      2 -0.4870230000000  0.2623160000000  0.2456430000000 1.0   0.00
O      2 -0.2376270000000  0.0665580000000 -0.0790430000000 1.0  -0.15
O      2  0.0665580000000 -0.2376270000000 -0.0790430000000 1.0  -0.15
S      3 -0.3016710000000  0.3688470000000  0.1211880000000 1.0  -0.03
S      3  0.3688470000000 -0.3016710000000  0.1211880000000 1.0  -0.03
S      3  0.3293060000000  0.3293060000000 -0.2965060000000 1.0  -0.15
Fe     4  0.0962050000000 -0.4708090000000 -0.3171860000000 1.0  -3.02
Fe     4 -0.4708090000000  0.0962050000000 -0.3171860000000 1.0  -3.02
Fe     4  0.4472250000000 -0.0166650000000 -0.0761890000000 1.0  -1.75
Fe     4 -0.0166650000000  0.4472250000000 -0.0761890000000 1.0  -1.75
Fe     4 -0.3665610000000  0.4247030000000 -0.1188930000000 1.0  -2.93
Fe     4  0.4247030000000 -0.3665610000000 -0.1188930000000 1.0  -2.93
END
