TITL LFSO-Li4Fe3S3O2-200927-001627-570018 -0.0609 561.763368 -1.03542962E+004 -19.9878 20.6594 24 (C2) n - 1
REM
REM Run started: Mon, 28 Sep 2020 16:06:33 +0100 in /scratch/scratch/uccabz1/launch_tmp/launcher_2020-09-28-13-18-06-599161
REM CASTEP 19.11| from code version Version unavailable
REM Functional Perdew Burke Ernzerhof Relativity Koelling-Harmon Dispersion off
REM Cut-off 340.0000 eV Grid scale 1.7500 Gmax 16.5316 1/A FBSC none
REM MP grid 3 2 2 Offset 0.000 0.000 0.000 No. kpts 5 Spacing 0.07
REM Total runtime: 91829.2 s
REM Overall efficiency: 74.4545 %
REM
REM
REM
REM compiler GCC version 4.9.2
REM options -cpp -iprefix /lustre/shared/ucl/apps/gcc/4.9.2/bin/../lib/gcc/x86_64-unknown-linux-gnu/4.9.2/ -mtune=corei7 -march=x86-64 -g -Og
REM COMMAND_LINE
REM seed 83192946 2145556193 -244725139 340332461 -1717333344 -1358734444 471308048 -1625685696 1713962816 1324968158 -1331122226 887759670
REM
REM S 3|1.8|5|6|7|30:31:32(qc=5)
REM O 2|1.5|12|13|15|20:21(qc=5)
REM Li 1|1.3|8|9|10|10U:20(qc=5)
REM Fe 3|2.2|2.0|1.0|8|9|10|40:41:32(qc=5)
REM 
CELL 1.54180    6.77080   10.18479   10.20550   79.80242   57.81705   70.58562
LATT -1
SFAC Li O  S  Fe 
Li     1 -0.4851680000000 -0.1739130000000 -0.0890760000000 1.0   0.03
Li     1 -0.3409200000000 -0.1739130000000  0.0890760000000 1.0   0.03
Li     1 -0.0577180000000  0.2841980000000  0.2782990000000 1.0  -0.00
Li     1 -0.2264790000000  0.2841980000000 -0.2782990000000 1.0  -0.00
Li     1 -0.4875100000000  0.1667340000000  0.0613420000000 1.0  -0.00
Li     1  0.3207760000000  0.1667340000000 -0.0613420000000 1.0  -0.00
Li     1  0.2531610000000  0.0948200000000  0.3434270000000 1.0   0.06
Li     1  0.6520190000000  0.0948200000000 -0.3434270000000 1.0   0.06
O      2 -0.1687860000000 -0.1797830000000 -0.1305200000000 1.0  -0.29
O      2  0.3485680000000 -0.1797830000000  0.1305200000000 1.0  -0.29
O      2  0.1987110000000  0.1458990000000  0.1546230000000 1.0  -0.20
O      2  0.6553900000000  0.1458990000000 -0.1546230000000 1.0  -0.20
S      3 -0.1945720000000 -0.2066990000000  0.5635560000000 1.0  -0.17
S      3  0.4012710000000 -0.2066990000000 -0.5635560000000 1.0  -0.17
S      3  0.2524460000000  0.0162680000000 -0.1704660000000 1.0  -0.19
S      3 -0.2687140000000  0.0162680000000  0.1704660000000 1.0  -0.19
S      3  0.0203950000000  0.3234500000000 -0.5317670000000 1.0  -0.02
S      3 -0.3438440000000  0.3234500000000  0.5317670000000 1.0  -0.02
Fe     4 -0.2687800000000 -0.1155540000000  0.3708420000000 1.0  -2.88
Fe     4  0.3843340000000 -0.1155540000000 -0.3708420000000 1.0  -2.88
Fe     4 -0.0809940000000 -0.0055450000000 -0.1664890000000 1.0  -3.45
Fe     4  0.0865390000000 -0.0055450000000  0.1664890000000 1.0  -3.45
Fe     4  0.1454370000000 -0.1904830000000  0.3410250000000 1.0  -2.87
Fe     4  0.0450460000000 -0.1904830000000 -0.3410250000000 1.0  -2.87
END
