TITL LFSO-Li6FeSO3-200909-221032-a0faf8 0.0352 355.103174 -7.36136600E+003 7.99999 8.36889 22 (P-1) n - 1
REM
REM Run started: Thu, 10 Sep 2020 07:57:47 +0100 in /lustre/scratch/uccabz1/launch_tmp/launcher_2020-09-09-21-10-30-718384
REM CASTEP 20.1 from code version af48c487+ pr-geom-scf-spinfix Tue Jun 2 15:39:59 2020 +0100
REM Functional Perdew Burke Ernzerhof Relativity Koelling-Harmon Dispersion off
REM Cut-off 340.0000 eV Grid scale 1.7500 Gmax 16.5316 1/A FBSC none
REM MP grid 3 3 2 Offset 0.000 0.000 0.000 No. kpts 9 Spacing 0.07
REM Total runtime: 39390.1 s
REM Overall efficiency: 98.0833 %
REM
REM
REM
REM compiler GCC version 4.9.2
REM options -cpp -iprefix /lustre/shared/ucl/apps/gcc/4.9.2/bin/../lib/gcc/x86_64-unknown-linux-gnu/4.9.2/ -mtune=corei7 -march=x86-64 -g -Og
REM COMMAND_LINE
REM seed -888852794 -801065504 -550037630 -1144528302 1539798633 1458917817 -1437263101 -1277407172 -600624083 559753841 -1165718395 2079804272
REM
REM S 3|1.8|5|6|7|30:31:32(qc=5)
REM O 2|1.5|12|13|15|20:21(qc=5)
REM Li 1|1.3|8|9|10|10U:20(qc=5)
REM Fe 3|2.2|2.0|1.0|8|9|10|40:41:32(qc=5)
REM 
CELL 1.54180    7.72175    6.27898    8.72699   78.01091   74.25708  111.73783
LATT -1
SFAC Li O  S  Fe 
Li     1 -0.1555630000000 -0.0518110000000 -0.4090920000000 1.0   0.02
Li     1  0.1555630000000  0.0518110000000  0.4090920000000 1.0   0.02
Li     1 -0.4760060000000  0.4480170000000  0.2999590000000 1.0   0.02
Li     1  0.4760060000000 -0.4480170000000 -0.2999590000000 1.0   0.02
Li     1 -0.0520210000000  0.5920250000000 -0.3654720000000 1.0  -0.03
Li     1  0.0520210000000 -0.5920250000000  0.3654720000000 1.0  -0.03
Li     1 -0.2565120000000  0.1675020000000  0.3445270000000 1.0  -0.11
Li     1  0.2565120000000 -0.1675020000000 -0.3445270000000 1.0  -0.11
Li     1  0.1552810000000  0.1334160000000 -0.2573920000000 1.0   0.04
Li     1 -0.1552810000000 -0.1334160000000  0.2573920000000 1.0   0.04
Li     1 -0.3542180000000 -0.1910040000000 -0.0564080000000 1.0  -0.04
Li     1  0.3542180000000  0.1910040000000  0.0564080000000 1.0  -0.04
O      2 -0.0434690000000  0.1088130000000  0.3423530000000 1.0   0.01
O      2  0.0434690000000 -0.1088130000000 -0.3423530000000 1.0   0.01
O      2 -0.4244840000000 -0.1501030000000 -0.2469220000000 1.0   0.22
O      2  0.4244840000000  0.1501030000000  0.2469220000000 1.0   0.22
O      2 -0.3551340000000 -0.2114150000000  0.1565320000000 1.0   0.25
O      2  0.3551340000000  0.2114150000000 -0.1565320000000 1.0   0.25
S      3 -0.2544780000000  0.4611990000000  0.4755120000000 1.0   0.16
S      3  0.2544780000000 -0.4611990000000 -0.4755120000000 1.0   0.16
Fe     4  0.4559400000000 -0.1302340000000  0.2725150000000 1.0   3.47
Fe     4 -0.4559400000000  0.1302340000000 -0.2725150000000 1.0   3.47
END
