TITL LFSO-Li4Fe3SO4-200930-223019-9592a6 -0.0319 379.724634 -1.08899856E+004 23.3162 23.9684 24 (Ccc2) n - 1
REM
REM Run started: Thu, 01 Oct 2020 01:47:12 +0100 in /lustre/scratch/uccabz1/launch_tmp/launcher_2020-09-30-21-30-18-059370
REM CASTEP 20.1 from code version af48c487+ pr-geom-scf-spinfix Tue Jun 2 15:39:59 2020 +0100
REM Functional Perdew Burke Ernzerhof Relativity Koelling-Harmon Dispersion off
REM Cut-off 340.0000 eV Grid scale 1.7500 Gmax 16.5316 1/A FBSC none
REM MP grid 3 2 2 Offset 0.000 0.000 0.000 No. kpts 4 Spacing 0.07
REM Total runtime: 11887.3 s
REM Overall efficiency: 76.6667 %
REM
REM
REM
REM compiler GCC version 4.9.2
REM options -cpp -iprefix /lustre/shared/ucl/apps/gcc/4.9.2/bin/../lib/gcc/x86_64-unknown-linux-gnu/4.9.2/ -mtune=corei7 -march=x86-64 -g -Og
REM COMMAND_LINE
REM seed -734165304 -1133717261 986633741 1983148095 151425205 -142105787 217669471 -1171494700 324466242 1367529749 1168164442 2115475185
REM
REM S 3|1.8|5|6|7|30:31:32(qc=5)
REM O 2|1.5|12|13|15|20:21(qc=5)
REM Li 1|1.3|8|9|10|10U:20(qc=5)
REM Fe 3|2.2|2.0|1.0|8|9|10|40:41:32(qc=5)
REM 
CELL 1.54180    5.63651    8.94729    8.94729  122.69684   90.00000   90.00000
LATT -1
SFAC Li O  S  Fe 
Li     1 -0.4814260000000 -0.0828350000000  0.1463020000000 1.0  -0.02
Li     1 -0.4814260000000  0.0828350000000 -0.1463020000000 1.0  -0.02
Li     1  0.0185740000000 -0.1463020000000  0.0828350000000 1.0  -0.02
Li     1  0.0185740000000  0.1463020000000 -0.0828350000000 1.0  -0.02
Li     1 -0.5140980000000  0.2091910000000 -0.5586890000000 1.0  -0.12
Li     1 -0.5140980000000 -0.2091910000000  0.5586890000000 1.0  -0.12
Li     1 -0.0140980000000  0.5586890000000 -0.2091910000000 1.0  -0.12
Li     1 -0.0140980000000 -0.5586890000000  0.2091910000000 1.0  -0.12
O      2  0.3000990000000 -0.3122590000000 -0.0261750000000 1.0   0.21
O      2  0.3000990000000  0.3122590000000  0.0261750000000 1.0   0.21
O      2 -0.1999010000000  0.0261750000000  0.3122590000000 1.0   0.21
O      2 -0.1999010000000 -0.0261750000000 -0.3122590000000 1.0   0.21
O      2  0.3142960000000 -0.1155880000000 -0.2298090000000 1.0   0.35
O      2  0.3142960000000  0.1155880000000  0.2298090000000 1.0   0.35
O      2 -0.1857040000000  0.2298090000000  0.1155880000000 1.0   0.35
O      2 -0.1857040000000 -0.2298090000000 -0.1155880000000 1.0   0.35
S      3  0.1051840000000  0.5000000000000  0.5000000000000 1.0   0.31
S      3  0.6051840000000 -0.5000000000000 -0.5000000000000 1.0   0.31
Fe     4  0.0026670000000  0.2029360000000  0.3042800000000 1.0   3.72
Fe     4  0.0026670000000 -0.2029360000000 -0.3042800000000 1.0   3.72
Fe     4  0.5026670000000 -0.3042800000000 -0.2029360000000 1.0   3.72
Fe     4  0.5026670000000  0.3042800000000  0.2029360000000 1.0   3.72
Fe     4 -0.1709300000000  0.0000000000000 -0.5000000000000 1.0   3.08
Fe     4  0.3290700000000  0.5000000000000  0.0000000000000 1.0   3.08
END
