TITL LFSO-LiFe3S4O-200909-085335-bde123 -0.0068 166.721251 -4.44377237E+003 2.82291 3.13067 9 (C2/m) n - 1
REM
REM Run started: Wed, 09 Sep 2020 11:18:26 +0100 in /lustre/scratch/uccabz1/launch_tmp/launcher_2020-09-09-07-53-34-206374
REM CASTEP 20.1 from code version af48c487+ pr-geom-scf-spinfix Tue Jun 2 15:39:59 2020 +0100
REM Functional Perdew Burke Ernzerhof Relativity Koelling-Harmon Dispersion off
REM Cut-off 340.0000 eV Grid scale 1.7500 Gmax 16.5316 1/A FBSC none
REM MP grid 4 3 3 Offset 0.000 0.000 0.000 No. kpts 12 Spacing 0.07
REM Total runtime: 9052.41 s
REM Overall efficiency: 96 %
REM
REM
REM
REM compiler GCC version 4.9.2
REM options -cpp -iprefix /lustre/shared/ucl/apps/gcc/4.9.2/bin/../lib/gcc/x86_64-unknown-linux-gnu/4.9.2/ -mtune=corei7 -march=x86-64 -g -Og
REM COMMAND_LINE
REM seed 1506570308 -313476906 1032512169 -498387141 1307041861 -430041557 1664576764 2084427725 1569542471 -1932844296 -1192686362 623221941
REM
REM S 3|1.8|5|6|7|30:31:32(qc=5)
REM O 2|1.5|12|13|15|20:21(qc=5)
REM Li 1|1.3|8|9|10|10U:20(qc=5)
REM Fe 3|2.2|2.0|1.0|8|9|10|40:41:32(qc=5)
REM 
CELL 1.54180    6.19204    6.80227    6.80227   54.96656   51.38115   51.38115
LATT -1
SFAC Li O  S  Fe 
Li     1  0.0000000000000  0.5000000000000 -0.5000000000000 1.0  -0.03
O      2 -0.5000000000000 -0.5000000000000  0.5000000000000 1.0   0.01
S      3 -0.1329310000000  0.4230710000000 -0.0525560000000 1.0   0.01
S      3  0.1329310000000  0.0525560000000 -0.4230710000000 1.0   0.01
S      3  0.1329310000000 -0.4230710000000  0.0525560000000 1.0   0.01
S      3 -0.1329310000000 -0.0525560000000  0.4230710000000 1.0   0.01
Fe     4 -1.1377080000000  0.3250500000000  0.3250500000000 1.0   0.00
Fe     4  1.1377080000000 -0.3250500000000 -0.3250500000000 1.0   0.00
Fe     4  0.0000000000000 -0.0000000000000 -0.0000000000000 1.0   2.78
END
