TITL LFSO-LiFeSO-200921-200501-8dfa24 0.0042 184.557942 -5.41731579E+003 8.95669 9.33598 12 (R3) n - 1
REM
REM Run started: Mon, 21 Sep 2020 21:12:32 +0100 in /lustre/scratch/uccabz1/launch_tmp/launcher_2020-09-21-19-05-00-211478
REM CASTEP 20.1 from code version af48c487+ pr-geom-scf-spinfix Tue Jun 2 15:39:59 2020 +0100
REM Functional Perdew Burke Ernzerhof Relativity Koelling-Harmon Dispersion off
REM Cut-off 340.0000 eV Grid scale 1.7500 Gmax 16.5316 1/A FBSC none
REM MP grid 3 3 3 Offset 0.000 0.000 0.000 No. kpts 6 Spacing 0.07
REM Total runtime: 4985.02 s
REM Overall efficiency: 96.1667 %
REM
REM
REM
REM compiler GCC version 4.9.2
REM options -cpp -iprefix /lustre/shared/ucl/apps/gcc/4.9.2/bin/../lib/gcc/x86_64-unknown-linux-gnu/4.9.2/ -mtune=corei7 -march=x86-64 -g -Og
REM COMMAND_LINE
REM seed 1257830544 1084371184 637065447 1925565648 2113252568 741651472 441017747 -1657073398 1392304 -1803424883 124696950 1786843735
REM
REM S 3|1.8|5|6|7|30:31:32(qc=5)
REM O 2|1.5|12|13|15|20:21(qc=5)
REM Li 1|1.3|8|9|10|10U:20(qc=5)
REM Fe 3|2.2|2.0|1.0|8|9|10|40:41:32(qc=5)
REM 
CELL 1.54180    7.29799    7.29799    7.29799   46.16739   46.16739   46.16739
LATT -1
SFAC Li O  S  Fe 
Li     1  0.2262070000000 -0.0961610000000 -0.4316580000000 1.0   0.02
Li     1 -0.0961610000000 -0.4316580000000  0.2262070000000 1.0   0.02
Li     1 -0.4316580000000  0.2262070000000 -0.0961610000000 1.0   0.02
O      2 -0.1301830000000  0.2098350000000 -0.4616500000000 1.0   0.38
O      2  0.2098350000000 -0.4616500000000 -0.1301830000000 1.0   0.38
O      2 -0.4616500000000 -0.1301830000000  0.2098350000000 1.0   0.38
S      3 -0.2314890000000  0.3939500000000  0.0175270000000 1.0   0.01
S      3  0.3939500000000  0.0175270000000 -0.2314890000000 1.0   0.01
S      3  0.0175270000000 -0.2314890000000  0.3939500000000 1.0   0.01
Fe     4 -0.5487050000000 -0.2816320000000  0.1827450000000 1.0   2.57
Fe     4 -0.2816320000000  0.1827450000000 -0.5487050000000 1.0   2.57
Fe     4  0.1827450000000 -0.5487050000000 -0.2816320000000 1.0   2.57
END
