TITL LFSO-LiFe3SO4-200909-021544-72a853 0.0384 105.416798 -4.84549675E+003 9.08745 9.83553 9 (R3m) n - 1
REM
REM Run started: Wed, 09 Sep 2020 02:30:59 +0100 in /lustre/scratch/uccabz1/launch_tmp/launcher_2020-09-09-01-15-42-922417
REM CASTEP 20.1 from code version af48c487+ pr-geom-scf-spinfix Tue Jun 2 15:39:59 2020 +0100
REM Functional Perdew Burke Ernzerhof Relativity Koelling-Harmon Dispersion off
REM Cut-off 340.0000 eV Grid scale 1.7500 Gmax 16.5316 1/A FBSC none
REM MP grid 4 4 4 Offset 0.000 0.000 0.000 No. kpts 12 Spacing 0.07
REM Total runtime: 1126.24 s
REM Overall efficiency: 92.2 %
REM
REM
REM
REM compiler GCC version 4.9.2
REM options -cpp -iprefix /lustre/shared/ucl/apps/gcc/4.9.2/bin/../lib/gcc/x86_64-unknown-linux-gnu/4.9.2/ -mtune=corei7 -march=x86-64 -g -Og
REM COMMAND_LINE
REM seed -1733669155 1429771553 -273181387 -420311569 1131046618 221827337 822640603 -1337870701 1412045586 -833155927 -534101172 -2051505508
REM
REM S 3|1.8|5|6|7|30:31:32(qc=5)
REM O 2|1.5|12|13|15|20:21(qc=5)
REM Li 1|1.3|8|9|10|10U:20(qc=5)
REM Fe 3|2.2|2.0|1.0|8|9|10|40:41:32(qc=5)
REM 
CELL 1.54180    4.75702    4.75702    4.75702   82.99264   82.99264   82.99264
LATT -1
SFAC Li O  S  Fe 
Li     1  0.0507080000000  0.0507080000000  0.0507080000000 1.0  -0.09
O      2  0.3660110000000 -0.1692880000000 -0.1692910000000 1.0   0.28
O      2 -0.1692910000000  0.3660110000000 -0.1692880000000 1.0   0.28
O      2 -0.1692880000000 -0.1692910000000  0.3660110000000 1.0   0.28
O      2  0.2399100000000  0.2399100000000  0.2399100000000 1.0  -0.14
S      3  0.4068060000000  0.4068060000000  0.4068060000000 1.0  -0.22
Fe     4 -0.3222670000000 -0.3228340000000  0.0708710000000 1.0   2.90
Fe     4  0.0708710000000 -0.3222670000000 -0.3228340000000 1.0   2.90
Fe     4 -0.3228340000000  0.0708710000000 -0.3222670000000 1.0   2.90
END
