TITL LFSO-Li4Fe2S2O3-200911-113943-a10799 0.0093 291.503130 -8.89230365E+003 -9.32583 10.1253 22 (P3) n - 1
REM
REM Run started: Fri, 11 Sep 2020 15:19:08 +0100 in /lustre/scratch/uccabz1/launch_tmp/launcher_2020-09-11-10-39-41-421835
REM CASTEP 20.1 from code version af48c487+ pr-geom-scf-spinfix Tue Jun 2 15:39:59 2020 +0100
REM Functional Perdew Burke Ernzerhof Relativity Koelling-Harmon Dispersion off
REM Cut-off 340.0000 eV Grid scale 1.7500 Gmax 16.5316 1/A FBSC none
REM MP grid 3 3 2 Offset 0.000 0.000 0.000 No. kpts 5 Spacing 0.07
REM Total runtime: 14419.5 s
REM Overall efficiency: 75.1429 %
REM
REM
REM
REM compiler GCC version 4.9.2
REM options -cpp -iprefix /lustre/shared/ucl/apps/gcc/4.9.2/bin/../lib/gcc/x86_64-unknown-linux-gnu/4.9.2/ -mtune=corei7 -march=x86-64 -g -Og
REM COMMAND_LINE
REM seed -1319651133 -55943471 1020593430 -1332792228 561519015 -805469518 -1448922566 1998371109 1818281736 280084100 450506865 -422982783
REM
REM S 3|1.8|5|6|7|30:31:32(qc=5)
REM O 2|1.5|12|13|15|20:21(qc=5)
REM Li 1|1.3|8|9|10|10U:20(qc=5)
REM Fe 3|2.2|2.0|1.0|8|9|10|40:41:32(qc=5)
REM 
CELL 1.54180    6.04185    6.04185    9.22088   90.00000   90.00000  120.00000
LATT -1
SFAC Li O  S  Fe 
Li     1 -0.3138080000000 -0.2822580000000  0.1696350000000 1.0   0.02
Li     1  0.2822580000000 -0.0315500000000  0.1696350000000 1.0   0.02
Li     1  0.0315500000000  0.3138080000000  0.1696350000000 1.0   0.02
Li     1  0.0091260000000 -0.3395970000000 -0.6290040000000 1.0  -0.00
Li     1  0.3395970000000  0.3487220000000 -0.6290040000000 1.0  -0.00
Li     1 -0.3487220000000 -0.0091260000000 -0.6290040000000 1.0  -0.00
Li     1  0.3333330000000 -0.3333330000000 -0.3302560000000 1.0   0.03
Li     1 -0.3333330000000  0.3333330000000  0.1473650000000 1.0  -0.00
O      2  0.3687950000000  0.3570930000000  0.1624590000000 1.0  -0.10
O      2 -0.3570930000000  0.0117030000000  0.1624590000000 1.0  -0.10
O      2 -0.0117030000000 -0.3687950000000  0.1624590000000 1.0  -0.10
O      2 -0.3294460000000 -0.3280580000000  0.4415240000000 1.0  -0.25
O      2  0.3280580000000 -0.0013880000000  0.4415240000000 1.0  -0.25
O      2  0.0013880000000  0.3294460000000  0.4415240000000 1.0  -0.25
S      3  0.0089610000000  0.3101030000000 -0.1602490000000 1.0   0.05
S      3 -0.3101030000000 -0.3011420000000 -0.1602490000000 1.0   0.05
S      3  0.3011420000000 -0.0089610000000 -0.1602490000000 1.0   0.05
S      3  0.3333330000000 -0.3333330000000 -0.0165230000000 1.0   0.03
Fe     4  0.4296090000000  0.1203810000000 -0.3855590000000 1.0  -2.38
Fe     4 -0.1203810000000  0.3092280000000 -0.3855590000000 1.0  -2.38
Fe     4 -0.3092280000000 -0.4296090000000 -0.3855590000000 1.0  -2.38
Fe     4 -0.3333330000000  0.3333330000000 -0.1748590000000 1.0  -1.41
END
