TITL LFSO-Li2Fe4S4O-200911-214158-bbb6d3 1.3221 373.324769 -1.10164555E+004 -14.9556 15.7030 22 (P-1) n - 1
REM
REM Run started: Wed, 16 Sep 2020 08:40:48 +0100 in /lustre/scratch/uccabz1/launch_tmp/launcher_2020-09-15-15-56-22-785100
REM CASTEP 20.1 from code version af48c487+ pr-geom-scf-spinfix Tue Jun 2 15:39:59 2020 +0100
REM Functional Perdew Burke Ernzerhof Relativity Koelling-Harmon Dispersion off
REM Cut-off 340.0000 eV Grid scale 1.7500 Gmax 16.5316 1/A FBSC none
REM MP grid 3 3 3 Offset 0.000 0.000 0.000 No. kpts 14 Spacing 0.07
REM Total runtime: 297444 s
REM Overall efficiency: 99 %
REM
REM
REM
REM compiler GCC version 4.9.2
REM options -cpp -iprefix /lustre/shared/ucl/apps/gcc/4.9.2/bin/../lib/gcc/x86_64-unknown-linux-gnu/4.9.2/ -mtune=corei7 -march=x86-64 -g -Og
REM COMMAND_LINE
REM seed 467260968 1657633542 1642201510 1689129187 -422267690 62897325 19821352 794773962 -2120447990 -265511956 -14681513 1642074762
REM
REM S 3|1.8|5|6|7|30:31:32(qc=5)
REM O 2|1.5|12|13|15|20:21(qc=5)
REM Li 1|1.3|8|9|10|10U:20(qc=5)
REM Fe 3|2.2|2.0|1.0|8|9|10|40:41:32(qc=5)
REM 
CELL 1.54180    9.02473    6.17811   10.97447   94.94636   38.87765   85.98987
LATT -1
SFAC Li O  S  Fe 
Li     1 -0.1405710000000 -0.4034370000000  0.2509010000000 1.0  -0.01
Li     1  0.1405710000000  0.4034370000000 -0.2509010000000 1.0  -0.01
Li     1  0.2955540000000  0.1395220000000 -0.1292310000000 1.0  -0.02
Li     1 -0.2955540000000 -0.1395220000000  0.1292310000000 1.0  -0.02
O      2 -0.3057950000000 -0.3955830000000  0.2133610000000 1.0  -0.30
O      2  0.3057950000000  0.3955830000000 -0.2133610000000 1.0  -0.30
S      3  0.0795260000000 -0.0968660000000  0.1433350000000 1.0  -0.09
S      3 -0.0795260000000  0.0968660000000 -0.1433350000000 1.0  -0.09
S      3 -0.1525160000000  0.2595130000000 -0.4381220000000 1.0   0.05
S      3  0.1525160000000 -0.2595130000000  0.4381220000000 1.0   0.05
S      3 -0.3716390000000 -0.1850310000000 -0.3972310000000 1.0  -0.06
S      3  0.3716390000000  0.1850310000000  0.3972310000000 1.0  -0.06
S      3  0.2906290000000  0.3392140000000  0.0856770000000 1.0   0.00
S      3 -0.2906290000000 -0.3392140000000 -0.0856770000000 1.0   0.00
Fe     4 -0.0125710000000 -0.0827060000000  0.3959720000000 1.0  -0.74
Fe     4  0.0125710000000  0.0827060000000 -0.3959720000000 1.0  -0.74
Fe     4  0.4863730000000  0.4829710000000  0.2608410000000 1.0  -2.73
Fe     4 -0.4863730000000 -0.4829710000000 -0.2608410000000 1.0  -2.73
Fe     4  0.6319170000000  0.3239130000000 -0.0420770000000 1.0  -1.62
Fe     4 -0.6319170000000 -0.3239130000000  0.0420770000000 1.0  -1.62
Fe     4  0.2298650000000  0.2452690000000  0.3051390000000 1.0  -1.92
Fe     4 -0.2298650000000 -0.2452690000000 -0.3051390000000 1.0  -1.92
END
