TITL LFSO-Li2Fe2S3O-200913-055920-927cff -0.0292 407.927535 -1.04301062E+004 5.29500 5.92984 24 (P3) n - 1
REM
REM Run started: Sun, 13 Sep 2020 17:53:24 +0100 in /lustre/scratch/uccabz1/launch_tmp/launcher_2020-09-13-04-59-18-652720
REM CASTEP 20.1 from code version af48c487+ pr-geom-scf-spinfix Tue Jun 2 15:39:59 2020 +0100
REM Functional Perdew Burke Ernzerhof Relativity Koelling-Harmon Dispersion off
REM Cut-off 340.0000 eV Grid scale 1.7500 Gmax 16.5316 1/A FBSC none
REM MP grid 5 2 2 Offset 0.000 0.000 0.000 No. kpts 10 Spacing 0.07
REM Total runtime: 43612.4 s
REM Overall efficiency: 82.125 %
REM
REM
REM
REM compiler GCC version 4.9.2
REM options -cpp -iprefix /lustre/shared/ucl/apps/gcc/4.9.2/bin/../lib/gcc/x86_64-unknown-linux-gnu/4.9.2/ -mtune=corei7 -march=x86-64 -g -Og
REM COMMAND_LINE
REM seed 143382327 1287393946 -170159563 872572729 813412422 -523492672 -966672036 2116600822 675319682 2013107035 83648991 -846750443
REM
REM S 3|1.8|5|6|7|30:31:32(qc=5)
REM O 2|1.5|12|13|15|20:21(qc=5)
REM Li 1|1.3|8|9|10|10U:20(qc=5)
REM Fe 3|2.2|2.0|1.0|8|9|10|40:41:32(qc=5)
REM 
CELL 1.54180    3.17216   12.18564   12.18564  120.00000   90.00000   90.00000
LATT -1
SFAC Li O  S  Fe 
Li     1 -0.3057730000000  0.2218670000000 -0.1156200000000 1.0   0.01
Li     1 -0.3057730000000 -0.3374870000000 -0.2218670000000 1.0   0.01
Li     1 -0.3057730000000  0.1156200000000  0.3374870000000 1.0   0.01
Li     1 -0.3564550000000  0.1553350000000  0.1516610000000 1.0   0.00
Li     1 -0.3564550000000 -0.0036740000000 -0.1553350000000 1.0   0.00
Li     1 -0.3564550000000 -0.1516610000000  0.0036740000000 1.0   0.00
O      2 -0.2243180000000  0.2696460000000  0.3401530000000 1.0   0.16
O      2 -0.2243180000000  0.0705070000000 -0.2696460000000 1.0   0.16
O      2 -0.2243180000000 -0.3401530000000 -0.0705070000000 1.0   0.16
S      3  0.1861270000000 -0.1757790000000 -0.1815110000000 1.0   0.00
S      3  0.1861270000000 -0.0057320000000  0.1757790000000 1.0   0.00
S      3  0.1861270000000  0.1815110000000  0.0057320000000 1.0   0.00
S      3 -0.1817210000000 -0.2359060000000 -0.4926190000000 1.0   0.00
S      3 -0.1817210000000 -0.2567130000000  0.2359060000000 1.0   0.00
S      3 -0.1817210000000  0.4926190000000  0.2567130000000 1.0   0.00
S      3  0.3108850000000  0.4726900000000 -0.0085790000000 1.0  -0.04
S      3  0.3108850000000 -0.4812690000000 -0.4726900000000 1.0  -0.04
S      3  0.3108850000000  0.0085790000000  0.4812690000000 1.0  -0.04
Fe     4  0.3165770000000 -0.3858820000000  0.4171850000000 1.0   0.98
Fe     4  0.3165770000000 -0.1969330000000  0.3858820000000 1.0   0.98
Fe     4  0.3165770000000 -0.4171850000000  0.1969330000000 1.0   0.98
Fe     4 -0.1917050000000 -0.0316360000000 -0.4249920000000 1.0   0.64
Fe     4 -0.1917050000000 -0.3933560000000  0.0316360000000 1.0   0.64
Fe     4 -0.1917050000000  0.4249920000000  0.3933560000000 1.0   0.64
END
