TITL LFSO-Li3FeS2O-200911-183052-da6800 -0.0194 201.523165 -5.01725371E+003 -5.99845 6.31988 14 (I212121) n - 1
REM
REM Run started: Sat, 12 Sep 2020 00:28:19 +0100 in /lustre/scratch/uccabz1/launch_tmp/launcher_2020-09-11-22-09-56-733457
REM CASTEP 20.1 from code version af48c487+ pr-geom-scf-spinfix Tue Jun 2 15:39:59 2020 +0100
REM Functional Perdew Burke Ernzerhof Relativity Koelling-Harmon Dispersion off
REM Cut-off 340.0000 eV Grid scale 1.7500 Gmax 16.5316 1/A FBSC none
REM MP grid 3 3 4 Offset 0.000 0.000 0.000 No. kpts 16 Spacing 0.07
REM Total runtime: 21121.8 s
REM Overall efficiency: 97.3636 %
REM
REM
REM
REM compiler GCC version 4.9.2
REM options -cpp -iprefix /lustre/shared/ucl/apps/gcc/4.9.2/bin/../lib/gcc/x86_64-unknown-linux-gnu/4.9.2/ -mtune=corei7 -march=x86-64 -g -Og
REM COMMAND_LINE
REM seed -160522537 360487408 1535458917 1722066738 1974729747 938698028 40267068 -394126990 2094324967 211351634 -170713833 -173108640
REM
REM S 3|1.8|5|6|7|30:31:32(qc=5)
REM O 2|1.5|12|13|15|20:21(qc=5)
REM Li 1|1.3|8|9|10|10U:20(qc=5)
REM Fe 3|2.2|2.0|1.0|8|9|10|40:41:32(qc=5)
REM 
CELL 1.54180    7.25873    5.94813    6.61837  116.70297  123.25577   90.00000
LATT -1
SFAC Li O  S  Fe 
Li     1 -0.3852600000000  0.0320110000000  0.1080210000000 1.0  -0.00
Li     1  0.4932800000000  0.5760090000000  0.1080210000000 1.0  -0.00
Li     1 -0.1147400000000 -0.0760090000000 -0.1080190000000 1.0  -0.00
Li     1  0.0067200000000  0.4679890000000 -0.1080190000000 1.0  -0.00
Li     1  0.2500000000000  0.1570950000000  0.0000010000000 1.0   0.05
Li     1 -0.2500000000000  0.3429050000000  0.0000010000000 1.0   0.05
O      2  0.0207060000000  0.2707060000000  0.0414140000000 1.0  -0.20
O      2  0.4792940000000  0.2292940000000 -0.0414120000000 1.0  -0.20
S      3 -0.4598900000000 -0.4289370000000 -0.3519020000000 1.0  -0.11
S      3  0.1079880000000 -0.4229660000000 -0.3519020000000 1.0  -0.11
S      3 -0.0401100000000 -0.0770340000000  0.3519040000000 1.0  -0.11
S      3  0.3920120000000 -0.0710630000000  0.3519040000000 1.0  -0.11
Fe     4  0.2517130000000 -0.2500000000000 -0.4999990000000 1.0  -2.64
Fe     4 -0.7517130000000  0.2500000000000  0.5000010000000 1.0  -2.64
END
