TITL LFSO-Li4Fe3SO4-200930-185705-52401b 0.0070 223.699241 -5.44516763E+003 9.95540 10.0795 12 (P2/m) n - 1
REM
REM Run started: Wed, 30 Sep 2020 20:16:53 +0100 in /lustre/scratch/uccabz1/launch_tmp/launcher_2020-09-30-17-57-04-080757
REM CASTEP 20.1 from code version af48c487+ pr-geom-scf-spinfix Tue Jun 2 15:39:59 2020 +0100
REM Functional Perdew Burke Ernzerhof Relativity Koelling-Harmon Dispersion off
REM Cut-off 340.0000 eV Grid scale 1.7500 Gmax 16.5316 1/A FBSC none
REM MP grid 5 2 2 Offset 0.000 0.000 0.000 No. kpts 5 Spacing 0.07
REM Total runtime: 5235.19 s
REM Overall efficiency: 82.375 %
REM
REM
REM
REM compiler GCC version 4.9.2
REM options -cpp -iprefix /lustre/shared/ucl/apps/gcc/4.9.2/bin/../lib/gcc/x86_64-unknown-linux-gnu/4.9.2/ -mtune=corei7 -march=x86-64 -g -Og
REM COMMAND_LINE
REM seed 570878570 -150676520 -2125391692 -119920352 1000503649 -987143753 598148260 1393757901 -811214673 1195819892 1062336970 2072688036
REM
REM S 3|1.8|5|6|7|30:31:32(qc=5)
REM O 2|1.5|12|13|15|20:21(qc=5)
REM Li 1|1.3|8|9|10|10U:20(qc=5)
REM Fe 3|2.2|2.0|1.0|8|9|10|40:41:32(qc=5)
REM 
CELL 1.54180    3.76689    7.85864    7.84162   90.00000   90.00000  105.49167
LATT -1
SFAC Li O  S  Fe 
Li     1  0.2738320000000 -0.3637520000000  0.2378080000000 1.0  -0.02
Li     1 -0.2738320000000  0.3637520000000  0.2378080000000 1.0  -0.02
Li     1 -0.2738320000000  0.3637520000000 -0.2378080000000 1.0  -0.02
Li     1  0.2738320000000 -0.3637520000000 -0.2378080000000 1.0  -0.02
O      2  0.2235840000000  0.3607660000000 -0.1808140000000 1.0   0.19
O      2 -0.2235840000000 -0.3607660000000 -0.1808140000000 1.0   0.19
O      2 -0.2235840000000 -0.3607660000000  0.1808140000000 1.0   0.19
O      2  0.2235840000000  0.3607660000000  0.1808140000000 1.0   0.19
S      3  0.5000000000000  0.0000000000000  0.0000000000000 1.0   0.31
Fe     4  0.0976110000000  0.1795250000000  0.0000000000000 1.0   3.46
Fe     4 -0.0976110000000 -0.1795250000000  0.0000000000000 1.0   3.46
Fe     4  0.5000000000000  0.5000000000000  0.0000000000000 1.0   2.06
END
