TITL LFSO-Li4Fe3S2O3-201001-091033-22e552 -0.0758 358.923746 -1.06203574E+004 0.173206E-01 0.509234E-01 24 (C2) n - 1
REM
REM Run started: Fri, 02 Oct 2020 12:57:39 +0100 in /lustre/scratch/uccabz1/launch_tmp/launcher_2020-10-01-08-10-30-779428
REM CASTEP 20.1 from code version af48c487+ pr-geom-scf-spinfix Tue Jun 2 15:39:59 2020 +0100
REM Functional Perdew Burke Ernzerhof Relativity Koelling-Harmon Dispersion off
REM Cut-off 340.0000 eV Grid scale 1.7500 Gmax 16.5316 1/A FBSC none
REM MP grid 6 2 2 Offset 0.000 0.000 0.000 No. kpts 9 Spacing 0.07
REM Total runtime: 101304 s
REM Overall efficiency: 82.6364 %
REM
REM
REM
REM compiler GCC version 4.9.2
REM options -cpp -iprefix /lustre/shared/ucl/apps/gcc/4.9.2/bin/../lib/gcc/x86_64-unknown-linux-gnu/4.9.2/ -mtune=corei7 -march=x86-64 -g -Og
REM COMMAND_LINE
REM seed 1046614521 611079446 996029156 -1416167121 415756378 -609200830 1041436548 -402640093 922853758 125383684 305424514 500320687
REM
REM S 3|1.8|5|6|7|30:31:32(qc=5)
REM O 2|1.5|12|13|15|20:21(qc=5)
REM Li 1|1.3|8|9|10|10U:20(qc=5)
REM Fe 3|2.2|2.0|1.0|8|9|10|40:41:32(qc=5)
REM 
CELL 1.54180    2.76426   11.48817   11.48817   98.13947   85.83768   85.83768
LATT -1
SFAC Li O  S  Fe 
Li     1 -0.2913210000000  0.0729850000000  0.1915130000000 1.0   0.00
Li     1  0.2913210000000 -0.1915130000000 -0.0729850000000 1.0   0.00
Li     1 -0.2445160000000  0.3857290000000  0.2700920000000 1.0  -0.00
Li     1  0.2445160000000 -0.2700920000000 -0.3857290000000 1.0  -0.00
Li     1 -0.3581260000000  0.1221370000000  0.3851700000000 1.0   0.00
Li     1  0.3581260000000 -0.3851700000000 -0.1221370000000 1.0   0.00
Li     1 -0.2660120000000 -0.3522230000000  0.0695710000000 1.0   0.00
Li     1  0.2660120000000 -0.0695710000000  0.3522230000000 1.0   0.00
O      2 -0.1846430000000 -0.2879250000000 -0.0593030000000 1.0  -0.00
O      2  0.1846430000000  0.0593030000000  0.2879250000000 1.0  -0.00
O      2  0.3204430000000  0.4321160000000 -0.1456640000000 1.0   0.00
O      2 -0.3204430000000  0.1456640000000 -0.4321160000000 1.0   0.00
O      2  0.2146350000000  0.3653870000000  0.3826130000000 1.0  -0.00
O      2 -0.2146350000000 -0.3826130000000 -0.3653870000000 1.0  -0.00
S      3  0.2569290000000 -0.5083090000000  0.1282010000000 1.0  -0.00
S      3 -0.2569290000000 -0.1282010000000  0.5083090000000 1.0  -0.00
S      3 -0.1607080000000  0.2218280000000  0.0366700000000 1.0   0.00
S      3  0.1607080000000 -0.0366700000000 -0.2218280000000 1.0   0.00
Fe     4  0.3205640000000  0.3429900000000 -0.0197420000000 1.0   0.01
Fe     4 -0.3205640000000  0.0197420000000 -0.3429900000000 1.0   0.01
Fe     4 -0.3294200000000  0.3747130000000  0.4922780000000 1.0  -0.00
Fe     4  0.3294200000000 -0.4922780000000 -0.3747130000000 1.0  -0.00
Fe     4  0.1359800000000  0.2541910000000 -0.3960070000000 1.0   0.01
Fe     4 -0.1359800000000  0.3960070000000 -0.2541910000000 1.0   0.01
END
