TITL LFSO-Li4FeS2O-200910-112810-bc0c77 0.0665 125.396311 -2.70823552E+003 -2.00331 2.36709 8 (Imm2) n - 1
REM
REM Run started: Thu, 10 Sep 2020 15:44:51 +0100 in /lustre/scratch/uccabz1/launch_tmp/launcher_2020-09-10-10-28-08-677478
REM CASTEP 20.1 from code version af48c487+ pr-geom-scf-spinfix Tue Jun 2 15:39:59 2020 +0100
REM Functional Perdew Burke Ernzerhof Relativity Koelling-Harmon Dispersion off
REM Cut-off 340.0000 eV Grid scale 1.7500 Gmax 16.5316 1/A FBSC none
REM MP grid 5 5 5 Offset 0.000 0.000 0.000 No. kpts 27 Spacing 0.07
REM Total runtime: 15466.7 s
REM Overall efficiency: 94.8182 %
REM
REM
REM
REM compiler GCC version 4.9.2
REM options -cpp -iprefix /lustre/shared/ucl/apps/gcc/4.9.2/bin/../lib/gcc/x86_64-unknown-linux-gnu/4.9.2/ -mtune=corei7 -march=x86-64 -g -Og
REM COMMAND_LINE
REM seed 352130387 936647603 857350109 -917623617 57859685 492616616 -150740207 1033515526 23878615 690516885 -130907553 -1007559113
REM
REM S 3|1.8|5|6|7|30:31:32(qc=5)
REM O 2|1.5|12|13|15|20:21(qc=5)
REM Li 1|1.3|8|9|10|10U:20(qc=5)
REM Fe 3|2.2|2.0|1.0|8|9|10|40:41:32(qc=5)
REM 
CELL 1.54180    7.58264    6.40660    6.40660   99.18301   53.71631   53.71631
LATT -1
SFAC Li O  S  Fe 
Li     1  0.2325050000000 -0.1932530000000  0.0646990000000 1.0   0.02
Li     1 -0.1039510000000  0.0646990000000 -0.1932530000000 1.0   0.02
Li     1 -0.1039510000000 -0.1932530000000  0.0646990000000 1.0   0.02
Li     1  0.2325050000000  0.0646990000000 -0.1932530000000 1.0   0.02
O      2  0.0596760000000 -0.0596760000000 -0.0596760000000 1.0  -0.00
S      3 -0.4221630000000 -0.2379090000000  0.0822340000000 1.0   0.02
S      3 -0.4221630000000  0.0822340000000 -0.2379090000000 1.0   0.02
Fe     4  0.0780790000000  0.4219210000000  0.4219210000000 1.0  -2.12
END
