TITL LFSO-LiFe3SO4-200909-024020-480f8c 0.0002 103.880909 -4.83914739E+003 7.43121 7.94806 9 (C2/m) n - 1
REM
REM Run started: Wed, 09 Sep 2020 03:09:39 +0100 in /lustre/scratch/uccabz1/launch_tmp/launcher_2020-09-09-01-40-19-038759
REM CASTEP 20.1 from code version af48c487+ pr-geom-scf-spinfix Tue Jun 2 15:39:59 2020 +0100
REM Functional Perdew Burke Ernzerhof Relativity Koelling-Harmon Dispersion off
REM Cut-off 340.0000 eV Grid scale 1.7500 Gmax 16.5316 1/A FBSC none
REM MP grid 4 4 4 Offset 0.000 0.000 0.000 No. kpts 32 Spacing 0.07
REM Total runtime: 2185.1 s
REM Overall efficiency: 94.8 %
REM
REM
REM
REM compiler GCC version 4.9.2
REM options -cpp -iprefix /lustre/shared/ucl/apps/gcc/4.9.2/bin/../lib/gcc/x86_64-unknown-linux-gnu/4.9.2/ -mtune=corei7 -march=x86-64 -g -Og
REM COMMAND_LINE
REM seed -1232006575 482992845 -2135037341 1509443785 2013646050 645417063 68994380 1668706465 -1274818477 -380840146 -183350469 1361499099
REM
REM S 3|1.8|5|6|7|30:31:32(qc=5)
REM O 2|1.5|12|13|15|20:21(qc=5)
REM Li 1|1.3|8|9|10|10U:20(qc=5)
REM Fe 3|2.2|2.0|1.0|8|9|10|40:41:32(qc=5)
REM 
CELL 1.54180    4.51920    5.38463    5.69874  118.19278  117.67021   90.00000
LATT -1
SFAC Li O  S  Fe 
Li     1  0.0000000000000 -0.5000000000000  0.0000000000000 1.0  -0.02
O      2 -0.0652540000000 -0.3567420000000 -0.2760780000000 1.0   0.02
O      2  0.0652540000000 -0.0806640000000  0.2760780000000 1.0   0.02
O      2  0.0652540000000  0.3567420000000  0.2760780000000 1.0   0.02
O      2 -0.0652540000000  0.0806640000000 -0.2760780000000 1.0   0.02
S      3  0.5000000000000  0.5000000000000  0.0000000000000 1.0  -0.12
Fe     4  0.5000000000000  0.5000000000000  0.5000000000000 1.0   1.92
Fe     4 -0.5000000000000  0.0000000000000 -0.5000000000000 1.0   1.92
Fe     4  0.5000000000000  0.0000000000000  0.0000000000000 1.0   3.64
END
