TITL LFSO-LiFe3S3O2-200909-153418-04ba6d -0.0379 155.038725 -4.57739448E+003 2.54511 4.98542 9 (Pm) n - 1
REM
REM Run started: Wed, 09 Sep 2020 17:30:20 +0100 in /lustre/scratch/uccabz1/launch_tmp/launcher_2020-09-09-14-34-17-113746
REM CASTEP 20.1 from code version af48c487+ pr-geom-scf-spinfix Tue Jun 2 15:39:59 2020 +0100
REM Functional Perdew Burke Ernzerhof Relativity Koelling-Harmon Dispersion off
REM Cut-off 340.0000 eV Grid scale 1.7500 Gmax 16.5316 1/A FBSC none
REM MP grid 5 2 3 Offset 0.000 0.000 0.000 No. kpts 8 Spacing 0.07
REM Total runtime: 7000.24 s
REM Overall efficiency: 93.8889 %
REM
REM
REM
REM compiler GCC version 4.9.2
REM options -cpp -iprefix /lustre/shared/ucl/apps/gcc/4.9.2/bin/../lib/gcc/x86_64-unknown-linux-gnu/4.9.2/ -mtune=corei7 -march=x86-64 -g -Og
REM COMMAND_LINE
REM seed -874629871 -436278030 279872821 1764751943 -339632900 -367105581 -1552304903 2137694054 1851789019 -340314624 -2101356422 -434872817
REM
REM S 3|1.8|5|6|7|30:31:32(qc=5)
REM O 2|1.5|12|13|15|20:21(qc=5)
REM Li 1|1.3|8|9|10|10U:20(qc=5)
REM Fe 3|2.2|2.0|1.0|8|9|10|40:41:32(qc=5)
REM 
CELL 1.54180    3.21398    7.75765    6.22663   90.00000   87.02301   90.00000
LATT -1
SFAC Li O  S  Fe 
Li     1  0.1932640000000 -0.5000000000000 -0.1245400000000 1.0  -0.00
O      2  0.1841740000000 -0.2382080000000 -0.0935990000000 1.0   0.14
O      2  0.1841740000000  0.2382080000000 -0.0935990000000 1.0   0.14
S      3 -0.3702260000000 -0.1701740000000  0.3776170000000 1.0   0.04
S      3 -0.3702260000000  0.1701740000000  0.3776170000000 1.0   0.04
S      3 -0.3402330000000 -0.5000000000000  0.1754200000000 1.0  -0.01
Fe     4 -0.3284090000000 -0.2353350000000  0.0359360000000 1.0   1.68
Fe     4 -0.3284090000000  0.2353350000000  0.0359360000000 1.0   1.68
Fe     4  0.1403730000000 -0.0000000000000  0.2594020000000 1.0  -1.17
END
