TITL LFSO-Li4FeS2O-200910-115024-1edd1b 1.2529 386.103622 -8.12762387E+003 -8.00332 8.47204 24 (R3) n - 1
REM
REM Run started: Sat, 12 Sep 2020 07:30:05 +0100 in /lustre/scratch/uccabz1/launch_tmp/launcher_2020-09-12-05-54-54-859164
REM CASTEP 20.1 from code version af48c487+ pr-geom-scf-spinfix Tue Jun 2 15:39:59 2020 +0100
REM Functional Perdew Burke Ernzerhof Relativity Koelling-Harmon Dispersion off
REM Cut-off 340.0000 eV Grid scale 1.7500 Gmax 16.5316 1/A FBSC none
REM MP grid 3 3 3 Offset 0.000 0.000 0.000 No. kpts 6 Spacing 0.07
REM Total runtime: 104361 s
REM Overall efficiency: 95.8182 %
REM
REM
REM
REM compiler GCC version 4.9.2
REM options -cpp -iprefix /lustre/shared/ucl/apps/gcc/4.9.2/bin/../lib/gcc/x86_64-unknown-linux-gnu/4.9.2/ -mtune=corei7 -march=x86-64 -g -Og
REM COMMAND_LINE
REM seed 1016624396 1783282585 -1802033434 2007767466 -339974566 -371036632 45706088 1136618424 127654708 1028384624 307051299 887457933
REM
REM S 3|1.8|5|6|7|30:31:32(qc=5)
REM O 2|1.5|12|13|15|20:21(qc=5)
REM Li 1|1.3|8|9|10|10U:20(qc=5)
REM Fe 3|2.2|2.0|1.0|8|9|10|40:41:32(qc=5)
REM 
CELL 1.54180    9.17279    9.17279    9.17279   47.66630   47.66630   47.66630
LATT -1
SFAC Li O  S  Fe 
Li     1  0.3002470000000  0.3176160000000 -0.2578680000000 1.0  -0.00
Li     1 -0.2578680000000  0.3002470000000  0.3176160000000 1.0  -0.00
Li     1  0.3176160000000 -0.2578680000000  0.3002470000000 1.0  -0.00
Li     1 -0.2706310000000 -0.1784650000000  0.2949200000000 1.0  -0.01
Li     1  0.2949200000000 -0.2706310000000 -0.1784650000000 1.0  -0.01
Li     1 -0.1784650000000  0.2949200000000 -0.2706310000000 1.0  -0.01
Li     1 -0.4872910000000  0.1005960000000  0.0295890000000 1.0  -0.01
Li     1  0.0295890000000 -0.4872910000000  0.1005960000000 1.0  -0.01
Li     1  0.1005960000000  0.0295890000000 -0.4872910000000 1.0  -0.01
Li     1  0.5938580000000  0.3623010000000  0.0683210000000 1.0   0.02
Li     1  0.0683210000000  0.5938580000000  0.3623010000000 1.0   0.02
Li     1  0.3623010000000  0.0683210000000  0.5938580000000 1.0   0.02
O      2 -0.2926170000000  0.1091610000000  0.0461240000000 1.0  -0.12
O      2  0.0461240000000 -0.2926170000000  0.1091610000000 1.0  -0.12
O      2  0.1091610000000  0.0461240000000 -0.2926170000000 1.0  -0.12
S      3 -0.3305260000000 -0.2798360000000  0.1491830000000 1.0  -0.08
S      3  0.1491830000000 -0.3305260000000 -0.2798360000000 1.0  -0.08
S      3 -0.2798360000000  0.1491830000000 -0.3305260000000 1.0  -0.08
S      3  0.0996900000000  0.0996900000000  0.0996900000000 1.0  -0.11
S      3  0.3920410000000  0.3920410000000  0.3920410000000 1.0  -0.01
S      3 -0.3163830000000 -0.3163830000000 -0.3163830000000 1.0  -0.03
Fe     4 -0.2127530000000 -0.2127530000000 -0.2127530000000 1.0  -3.43
Fe     4 -0.0990490000000 -0.0990490000000 -0.0990490000000 1.0  -0.31
Fe     4  0.0070120000000  0.0070120000000  0.0070120000000 1.0  -3.54
END
