TITL LFSO-Li4Fe3SO4-200930-210142-cef73e -0.0391 164.859026 -5.44567852E+003 11.8272 12.0207 12 (C2) n - 1
REM
REM Run started: Wed, 30 Sep 2020 22:41:19 +0100 in /scratch/scratch/uccabz1/launch_tmp/launcher_2020-09-30-20-01-40-833771
REM CASTEP 19.11| from code version Version unavailable
REM Functional Perdew Burke Ernzerhof Relativity Koelling-Harmon Dispersion off
REM Cut-off 340.0000 eV Grid scale 1.7500 Gmax 16.5316 1/A FBSC none
REM MP grid 3 4 4 Offset 0.000 0.000 0.000 No. kpts 16 Spacing 0.07
REM Total runtime: 6049.56 s
REM Overall efficiency: 80.7143 %
REM
REM
REM
REM compiler GCC version 4.9.2
REM options -cpp -iprefix /scratch/UCL/applications/gcc/4.9.2/bin/../lib/gcc/x86_64-unknown-linux-gnu/4.9.2/ -mtune=corei7 -march=x86-64 -g -O2
REM COMMAND_LINE
REM seed 2083075489 454139432 -849956611 2147226371 -1537271945 206787465 1535451734 -1971402427 -2053098656 -70018419 2022202527 402137469
REM
REM S 3|1.8|5|6|7|30:31:32(qc=5)
REM O 2|1.5|12|13|15|20:21(qc=5)
REM Li 1|1.3|8|9|10|10U:20(qc=5)
REM Fe 3|2.2|2.0|1.0|8|9|10|40:41:32(qc=5)
REM 
CELL 1.54180    8.04010    6.89576    6.89576   45.81710  137.39158  137.39158
LATT -1
SFAC Li O  S  Fe 
Li     1  0.9446090000000  0.7080020000000  0.5283030000000 1.0  -0.02
Li     1  0.0553910000000  0.4716970000000  0.2919980000000 1.0  -0.02
Li     1 -0.5474830000000 -0.1270710000000 -0.4232740000000 1.0  -0.04
Li     1  0.5474830000000  0.4232740000000  0.1270710000000 1.0  -0.04
O      2 -0.3320310000000 -0.7073340000000 -0.4553980000000 1.0   0.38
O      2 -0.6679690000000 -0.5446020000000 -0.2926660000000 1.0   0.38
O      2 -0.1209780000000  0.0405580000000  0.3596530000000 1.0   0.24
O      2  0.1209780000000 -0.3596530000000 -0.0405580000000 1.0   0.24
S      3  0.0000000000000  0.8882240000000  0.1117760000000 1.0   0.29
Fe     4 -0.1528410000000  0.1940990000000 -0.0480130000000 1.0   3.60
Fe     4  0.1528410000000  0.0480130000000 -0.1940990000000 1.0   3.60
Fe     4  0.5000000000000 -0.1484030000000  0.1484030000000 1.0   3.20
END
