TITL LFSO-Li2Fe3SO3-200912-095250-1466cf 0.0599 204.244178 -9.21482308E+003 -6.06990 7.09369 18 (P3) n - 1
REM
REM Run started: Sat, 12 Sep 2020 19:43:48 +0100 in /lustre/scratch/uccabz1/launch_tmp/launcher_2020-09-12-08-52-49-132056
REM CASTEP 20.1 from code version af48c487+ pr-geom-scf-spinfix Tue Jun 2 15:39:59 2020 +0100
REM Functional Perdew Burke Ernzerhof Relativity Koelling-Harmon Dispersion off
REM Cut-off 340.0000 eV Grid scale 1.7500 Gmax 16.5316 1/A FBSC none
REM MP grid 5 3 3 Offset 0.000 0.000 0.000 No. kpts 13 Spacing 0.07
REM Total runtime: 35713.8 s
REM Overall efficiency: 84.125 %
REM
REM
REM
REM compiler GCC version 4.9.2
REM options -cpp -iprefix /lustre/shared/ucl/apps/gcc/4.9.2/bin/../lib/gcc/x86_64-unknown-linux-gnu/4.9.2/ -mtune=corei7 -march=x86-64 -g -Og
REM COMMAND_LINE
REM seed -46618988 -813851101 270770362 2128492967 -301334112 593117191 645788396 1972234701 -855792724 -1372938574 1330710249 2137637504
REM
REM S 3|1.8|5|6|7|30:31:32(qc=5)
REM O 2|1.5|12|13|15|20:21(qc=5)
REM Li 1|1.3|8|9|10|10U:20(qc=5)
REM Fe 3|2.2|2.0|1.0|8|9|10|40:41:32(qc=5)
REM 
CELL 1.54180    3.55043    8.15022    8.15022  120.00000   90.00000   90.00000
LATT -1
SFAC Li O  S  Fe 
Li     1 -0.1237120000000 -0.3995640000000 -0.0414030000000 1.0   0.03
Li     1 -0.1237120000000  0.3581610000000  0.3995640000000 1.0   0.03
Li     1 -0.1237120000000  0.0414030000000 -0.3581610000000 1.0   0.03
Li     1  0.4703770000000  0.3333330000000 -0.3333330000000 1.0  -0.00
O      2  0.5458300000000  0.0855920000000  0.4398860000000 1.0  -0.08
O      2  0.5458300000000  0.3542940000000 -0.0855920000000 1.0  -0.08
O      2  0.5458300000000 -0.4398860000000 -0.3542940000000 1.0  -0.08
O      2  0.3925680000000 -0.2533380000000  0.0399750000000 1.0  -0.10
O      2  0.3925680000000  0.2933130000000  0.2533380000000 1.0  -0.10
O      2  0.3925680000000 -0.0399750000000 -0.2933130000000 1.0  -0.10
S      3 -0.0816320000000  0.0000000000000  0.0000000000000 1.0   0.00
S      3  0.0177780000000 -0.3333330000000  0.3333330000000 1.0  -0.07
Fe     4 -0.4778630000000 -0.1838420000000  0.2945950000000 1.0  -1.91
Fe     4 -0.4778630000000  0.4784380000000  0.1838420000000 1.0  -1.91
Fe     4 -0.4778630000000 -0.2945950000000 -0.4784380000000 1.0  -1.91
Fe     4 -0.5731570000000  0.0299940000000  0.1850660000000 1.0   0.07
Fe     4 -0.5731570000000  0.1550720000000 -0.0299940000000 1.0   0.07
Fe     4 -0.5731570000000 -0.1850660000000 -0.1550720000000 1.0   0.07
END
