TITL LFSO-Li4Fe3SO4-200930-122118-b29b71 0.0217 304.502345 -1.08925088E+004 -23.8571 24.1955 24 (Cc) n - 1
REM
REM Run started: Wed, 30 Sep 2020 23:47:06 +0100 in /lustre/scratch/uccabz1/launch_tmp/launcher_2020-09-30-11-21-16-463730
REM CASTEP 20.1 from code version af48c487+ pr-geom-scf-spinfix Tue Jun 2 15:39:59 2020 +0100
REM Functional Perdew Burke Ernzerhof Relativity Koelling-Harmon Dispersion off
REM Cut-off 340.0000 eV Grid scale 1.7500 Gmax 16.5316 1/A FBSC none
REM MP grid 3 3 2 Offset 0.000 0.000 0.000 No. kpts 8 Spacing 0.07
REM Total runtime: 44594.7 s
REM Overall efficiency: 97.8333 %
REM
REM
REM
REM compiler GCC version 4.9.2
REM options -cpp -iprefix /lustre/shared/ucl/apps/gcc/4.9.2/bin/../lib/gcc/x86_64-unknown-linux-gnu/4.9.2/ -mtune=corei7 -march=x86-64 -g -Og
REM COMMAND_LINE
REM seed -548073002 1009966892 1507820445 -1443914284 1329706368 -610280630 -2041693136 -864214234 -2044510970 -1821513067 -1778223832 964865797
REM
REM S 3|1.8|5|6|7|30:31:32(qc=5)
REM O 2|1.5|12|13|15|20:21(qc=5)
REM Li 1|1.3|8|9|10|10U:20(qc=5)
REM Fe 3|2.2|2.0|1.0|8|9|10|40:41:32(qc=5)
REM 
CELL 1.54180    5.69359    7.36371    8.78300  106.34129   98.38633  115.16839
LATT -1
SFAC Li O  S  Fe 
Li     1 -0.2190170000000 -0.5451110000000 -0.0552980000000 1.0  -0.02
Li     1  0.3362820000000 -0.4898130000000  0.0552980000000 1.0  -0.02
Li     1 -0.1426330000000  0.2000760000000  0.0509470000000 1.0  -0.01
Li     1  0.3064200000000  0.1491290000000 -0.0509470000000 1.0  -0.01
Li     1  0.2075620000000 -0.4651310000000  0.3288210000000 1.0   0.04
Li     1  0.3787400000000  0.2060470000000 -0.3288210000000 1.0   0.04
Li     1 -0.3596470000000  0.3528130000000  0.2817330000000 1.0   0.05
Li     1 -0.1413790000000  0.0710800000000 -0.2817330000000 1.0   0.05
O      2 -0.4695440000000  0.2815540000000  0.4732330000000 1.0  -0.35
O      2 -0.4427770000000 -0.1916790000000 -0.4732330000000 1.0  -0.35
O      2  0.2610640000000  0.2971090000000  0.1584210000000 1.0  -0.26
O      2 -0.3973570000000  0.1386880000000 -0.1584210000000 1.0  -0.26
O      2  0.2219780000000  0.3223710000000 -0.1712850000000 1.0  -0.21
O      2 -0.1067370000000  0.4936560000000  0.1712850000000 1.0  -0.21
O      2  0.1243240000000  0.3929880000000  0.4810150000000 1.0  -0.43
O      2  0.1433090000000 -0.0880270000000 -0.4810150000000 1.0  -0.43
S      3 -0.0171490000000 -0.2843710000000 -0.1930150000000 1.0  -0.22
S      3 -0.3241340000000 -0.0913560000000  0.1930150000000 1.0  -0.22
Fe     4  0.3424630000000 -0.1456130000000 -0.3145860000000 1.0  -3.59
Fe     4  0.1570490000000  0.1689730000000  0.3145860000000 1.0  -3.59
Fe     4 -0.4391440000000  0.5770510000000 -0.4075300000000 1.0  -3.50
Fe     4  0.4683870000000 -0.0154190000000  0.4075300000000 1.0  -3.50
Fe     4  0.1695810000000  0.4845770000000 -0.2899280000000 1.0  -3.44
Fe     4 -0.0404920000000 -0.2254960000000  0.2899280000000 1.0  -3.44
END
