TITL LFSO-LiFe3S3O2-200909-142250-a133af -0.0027 148.535723 -4.57791886E+003 5.01748 5.48968 9 (R3) n - 1
REM
REM Run started: Wed, 09 Sep 2020 15:54:46 +0100 in /lustre/scratch/uccabz1/launch_tmp/launcher_2020-09-09-13-22-47-927682
REM CASTEP 20.1 from code version af48c487+ pr-geom-scf-spinfix Tue Jun 2 15:39:59 2020 +0100
REM Functional Perdew Burke Ernzerhof Relativity Koelling-Harmon Dispersion off
REM Cut-off 340.0000 eV Grid scale 1.7500 Gmax 16.5316 1/A FBSC none
REM MP grid 4 4 4 Offset 0.000 0.000 0.000 No. kpts 12 Spacing 0.07
REM Total runtime: 6193.81 s
REM Overall efficiency: 95.25 %
REM
REM
REM
REM compiler GCC version 4.9.2
REM options -cpp -iprefix /lustre/shared/ucl/apps/gcc/4.9.2/bin/../lib/gcc/x86_64-unknown-linux-gnu/4.9.2/ -mtune=corei7 -march=x86-64 -g -Og
REM COMMAND_LINE
REM seed 1862708353 -672426843 -1169584846 -1258742189 -1134198935 -1072382428 1351680671 1469403099 -1055509240 971340679 -1658201664 444607031
REM
REM S 3|1.8|5|6|7|30:31:32(qc=5)
REM O 2|1.5|12|13|15|20:21(qc=5)
REM Li 1|1.3|8|9|10|10U:20(qc=5)
REM Fe 3|2.2|2.0|1.0|8|9|10|40:41:32(qc=5)
REM 
CELL 1.54180    7.06969    7.06969    7.06969   42.92677   42.92676   42.92676
LATT -1
SFAC Li O  S  Fe 
Li     1  0.3975880000000  0.3975880000000  0.3975880000000 1.0   0.02
O      2  0.3020710000000  0.3020710000000  0.3020710000000 1.0   0.09
O      2 -0.3651750000000 -0.3651750000000 -0.3651750000000 1.0   0.15
S      3  0.1644010000000 -0.4797460000000 -0.1550260000000 1.0  -0.03
S      3 -0.4797460000000 -0.1550260000000  0.1644010000000 1.0  -0.03
S      3 -0.1550260000000  0.1644010000000 -0.4797460000000 1.0  -0.03
Fe     4  0.2631120000000 -0.0925130000000  0.5743030000000 1.0   1.62
Fe     4 -0.0925130000000  0.5743030000000  0.2631120000000 1.0   1.62
Fe     4  0.5743030000000  0.2631120000000 -0.0925130000000 1.0   1.62
END
