TITL LFSO-Li6FeS3O-200910-004232-d9ddd6 0.1112 1366.459014 -6.82347144E+003 7.99996 8.40693 22 (Pm) n - 1
REM
REM Run started: Thu, 10 Sep 2020 20:46:33 +0100 in /lustre/scratch/uccabz1/launch_tmp/launcher_2020-09-10-10-17-35-616124
REM CASTEP 20.1 from code version af48c487+ pr-geom-scf-spinfix Tue Jun 2 15:39:59 2020 +0100
REM Functional Perdew Burke Ernzerhof Relativity Koelling-Harmon Dispersion off
REM Cut-off 340.0000 eV Grid scale 1.7500 Gmax 16.5316 1/A FBSC none
REM MP grid 3 1 3 Offset 0.000 0.000 0.000 No. kpts 5 Spacing 0.07
REM Total runtime: 89530.6 s
REM Overall efficiency: 74.9091 %
REM
REM
REM
REM compiler GCC version 4.9.2
REM options -cpp -iprefix /lustre/shared/ucl/apps/gcc/4.9.2/bin/../lib/gcc/x86_64-unknown-linux-gnu/4.9.2/ -mtune=corei7 -march=x86-64 -g -Og
REM COMMAND_LINE
REM seed 1653262041 378867843 -701074082 -955194320 -1391847952 -433622853 1599645750 243181898 -1303068054 1151445871 -361085756 359945529
REM
REM S 3|1.8|5|6|7|30:31:32(qc=5)
REM O 2|1.5|12|13|15|20:21(qc=5)
REM Li 1|1.3|8|9|10|10U:20(qc=5)
REM Fe 3|2.2|2.0|1.0|8|9|10|40:41:32(qc=5)
REM 
CELL 1.54180    6.28602   31.39101    6.92533   90.00000   89.39279   90.00000
LATT -1
SFAC Li O  S  Fe 
Li     1 -0.3234870000000  0.2882220000000  0.0480850000000 1.0   0.02
Li     1 -0.3234870000000 -0.2882220000000  0.0480850000000 1.0   0.02
Li     1 -0.1085610000000 -0.2367830000000 -0.2379620000000 1.0  -0.00
Li     1 -0.1085610000000  0.2367830000000 -0.2379620000000 1.0  -0.00
Li     1 -0.0579410000000  0.2181890000000  0.3196950000000 1.0   0.04
Li     1 -0.0579410000000 -0.2181890000000  0.3196950000000 1.0   0.04
Li     1 -0.1725880000000  0.2882060000000  0.4631430000000 1.0   0.01
Li     1 -0.1725880000000 -0.2882060000000  0.4631430000000 1.0   0.01
Li     1  0.3594860000000 -0.2177090000000 -0.4362790000000 1.0  -0.06
Li     1  0.3594860000000  0.2177090000000 -0.4362790000000 1.0  -0.06
Li     1  0.2667920000000 -0.2744060000000  0.3213140000000 1.0  -0.01
Li     1  0.2667920000000  0.2744060000000  0.3213140000000 1.0  -0.01
O      2  0.0940170000000  0.2523850000000 -0.4513330000000 1.0   0.15
O      2  0.0940170000000 -0.2523850000000 -0.4513330000000 1.0   0.15
S      3 -0.4117220000000 -0.2962690000000 -0.2669500000000 1.0   0.20
S      3 -0.4117220000000  0.2962690000000 -0.2669500000000 1.0   0.20
S      3  0.0546860000000 -0.2717980000000  0.0380270000000 1.0   0.16
S      3  0.0546860000000  0.2717980000000  0.0380270000000 1.0   0.16
S      3  0.5884980000000 -0.2300130000000  0.3084910000000 1.0   0.02
S      3  0.5884980000000  0.2300130000000  0.3084910000000 1.0   0.02
Fe     4  0.2476290000000 -0.2817460000000 -0.2374470000000 1.0   3.47
Fe     4  0.2476290000000  0.2817460000000 -0.2374470000000 1.0   3.47
END
