TITL LFSO-Li4FeS2O-200910-121817-6a3d66 1.1987 335.754170 -5.41821486E+003 8.00000 8.33711 16 (Pc) n - 1
REM
REM Run started: Thu, 10 Sep 2020 20:38:52 +0100 in /lustre/scratch/uccabz1/launch_tmp/launcher_2020-09-10-11-18-14-431134
REM CASTEP 20.1 from code version af48c487+ pr-geom-scf-spinfix Tue Jun 2 15:39:59 2020 +0100
REM Functional Perdew Burke Ernzerhof Relativity Koelling-Harmon Dispersion off
REM Cut-off 340.0000 eV Grid scale 1.7500 Gmax 16.5316 1/A FBSC none
REM MP grid 3 3 2 Offset 0.000 0.000 0.000 No. kpts 6 Spacing 0.07
REM Total runtime: 34191.5 s
REM Overall efficiency: 96.25 %
REM
REM
REM
REM compiler GCC version 4.9.2
REM options -cpp -iprefix /lustre/shared/ucl/apps/gcc/4.9.2/bin/../lib/gcc/x86_64-unknown-linux-gnu/4.9.2/ -mtune=corei7 -march=x86-64 -g -Og
REM COMMAND_LINE
REM seed -1057065502 -1316082087 -1539477916 -515197381 -1305992297 545538000 -1360715607 -2125722615 35669864 -48097259 -1607519012 -2060767602
REM
REM S 3|1.8|5|6|7|30:31:32(qc=5)
REM O 2|1.5|12|13|15|20:21(qc=5)
REM Li 1|1.3|8|9|10|10U:20(qc=5)
REM Fe 3|2.2|2.0|1.0|8|9|10|40:41:32(qc=5)
REM 
CELL 1.54180    5.89655    6.84576    9.66417   90.00000  120.60797   90.00000
LATT -1
SFAC Li O  S  Fe 
Li     1  0.2509480000000  0.3230650000000  0.2874240000000 1.0  -0.02
Li     1  0.2509480000000 -0.3230650000000 -0.2125760000000 1.0  -0.02
Li     1  0.7495700000000 -0.2137710000000  0.1891090000000 1.0   0.00
Li     1  0.7495700000000  0.2137710000000 -0.3108910000000 1.0   0.00
Li     1  0.2608090000000 -0.1211030000000  0.0400950000000 1.0   0.02
Li     1  0.2608090000000  0.1211030000000  0.5400950000000 1.0   0.02
Li     1 -0.2926450000000  0.3339430000000  0.4244500000000 1.0  -0.03
Li     1 -0.2926450000000 -0.3339430000000 -0.0755500000000 1.0  -0.03
O      2 -0.5439320000000  0.2990400000000 -0.4997170000000 1.0   0.19
O      2 -0.5439320000000 -0.2990400000000  0.0002830000000 1.0   0.19
S      3 -0.4816740000000 -0.1700720000000 -0.3197570000000 1.0   0.14
S      3 -0.4816740000000  0.1700720000000  0.1802430000000 1.0   0.14
S      3  0.1144610000000  0.3837620000000  0.6525710000000 1.0   0.22
S      3  0.1144610000000 -0.3837620000000  0.1525710000000 1.0   0.22
Fe     4  0.3859580000000 -0.5239590000000  0.0806800000000 1.0   3.48
Fe     4  0.3859580000000  0.5239590000000 -0.4193200000000 1.0   3.48
END
