TITL LFSO-Li2Fe2SO2-200913-000154-076a39 0.0255 165.260712 -3.30366590E+003 6.01911 6.39927 7 (Fmmm) n - 1
REM
REM Run started: Sun, 13 Sep 2020 01:03:37 +0100 in /lustre/scratch/uccabz1/launch_tmp/launcher_2020-09-12-23-01-52-203781
REM CASTEP 20.1 from code version af48c487+ pr-geom-scf-spinfix Tue Jun 2 15:39:59 2020 +0100
REM Functional Perdew Burke Ernzerhof Relativity Koelling-Harmon Dispersion off
REM Cut-off 340.0000 eV Grid scale 1.7500 Gmax 16.5316 1/A FBSC none
REM MP grid 3 3 3 Offset 0.000 0.000 0.000 No. kpts 8 Spacing 0.07
REM Total runtime: 3757.12 s
REM Overall efficiency: 92.1111 %
REM
REM
REM
REM compiler GCC version 4.9.2
REM options -cpp -iprefix /lustre/shared/ucl/apps/gcc/4.9.2/bin/../lib/gcc/x86_64-unknown-linux-gnu/4.9.2/ -mtune=corei7 -march=x86-64 -g -Og
REM COMMAND_LINE
REM seed -164271129 1739591548 1098687923 2021074733 -604858364 -180636288 1916878140 1771637893 986923526 -882508348 191922484 878697220
REM
REM S 3|1.8|5|6|7|30:31:32(qc=5)
REM O 2|1.5|12|13|15|20:21(qc=5)
REM Li 1|1.3|8|9|10|10U:20(qc=5)
REM Fe 3|2.2|2.0|1.0|8|9|10|40:41:32(qc=5)
REM 
CELL 1.54180    5.80254    5.80254    6.18801  110.24536  110.24536  105.18533
LATT -1
SFAC Li O  S  Fe 
Li     1  0.2534070000000 -0.2534070000000  0.0000000000000 1.0  -0.16
Li     1 -0.2534070000000  0.2534070000000  0.0000000000000 1.0  -0.16
O      2  0.3791370000000  0.3791370000000  0.7582750000000 1.0   0.35
O      2 -0.3791370000000 -0.3791370000000 -0.7582750000000 1.0   0.35
S      3  0.0000000000000  0.0000000000000  0.0000000000000 1.0   0.01
Fe     4 -0.3090660000000 -0.3090660000000 -1.0000000000000 1.0   2.82
Fe     4  0.3090660000000  0.3090660000000  1.0000000000000 1.0   2.82
END
