TITL LFSO-Li2Fe2S2O-200913-135012-3ddd71 -0.0496 131.014363 -3.17159965E+003 7.22056 7.29006 7 (Cmmm) n - 1
REM
REM Run started: Sun, 13 Sep 2020 15:04:08 +0100 in /lustre/scratch/uccabz1/launch_tmp/launcher_2020-09-13-12-50-10-137408
REM CASTEP 20.1 from code version af48c487+ pr-geom-scf-spinfix Tue Jun 2 15:39:59 2020 +0100
REM Functional Perdew Burke Ernzerhof Relativity Koelling-Harmon Dispersion off
REM Cut-off 340.0000 eV Grid scale 1.7500 Gmax 16.5316 1/A FBSC none
REM MP grid 4 4 2 Offset 0.000 0.000 0.000 No. kpts 8 Spacing 0.07
REM Total runtime: 4454.29 s
REM Overall efficiency: 89.2308 %
REM
REM
REM
REM compiler GCC version 4.9.2
REM options -cpp -iprefix /lustre/shared/ucl/apps/gcc/4.9.2/bin/../lib/gcc/x86_64-unknown-linux-gnu/4.9.2/ -mtune=corei7 -march=x86-64 -g -Og
REM COMMAND_LINE
REM seed 2050636683 81258544 -1977309889 -1233825787 804488230 -1367079605 -340170858 842208456 1593765896 -1847233365 -1138634829 -569345997
REM
REM S 3|1.8|5|6|7|30:31:32(qc=5)
REM O 2|1.5|12|13|15|20:21(qc=5)
REM Li 1|1.3|8|9|10|10U:20(qc=5)
REM Fe 3|2.2|2.0|1.0|8|9|10|40:41:32(qc=5)
REM 
CELL 1.54180    3.98427    3.73766    8.99403  101.99261   90.00000   90.00000
LATT -1
SFAC Li O  S  Fe 
Li     1  0.0000000000000  0.4321180000000 -0.1357640000000 1.0  -0.07
Li     1  0.0000000000000 -0.4321180000000  0.1357640000000 1.0  -0.07
O      2  0.0000000000000  0.0000000000000  0.0000000000000 1.0   0.28
S      3 -0.5000000000000 -0.3634590000000  0.2730820000000 1.0   0.27
S      3  0.5000000000000  0.3634590000000 -0.2730820000000 1.0   0.27
Fe     4 -0.5000000000000  0.0665540000000  0.1331070000000 1.0   3.27
Fe     4  0.5000000000000 -0.0665540000000 -0.1331070000000 1.0   3.27
END
