TITL LFSO-Li4Fe3S2O3-201001-031852-abd620 -0.0153 386.527126 -1.06240500E+004 23.9958 24.3036 24 (C2) n - 1
REM
REM Run started: Fri, 02 Oct 2020 06:36:13 +0100 in /lustre/scratch/uccabz1/launch_tmp/launcher_2020-10-01-02-18-51-135300
REM CASTEP 20.1 from code version af48c487+ pr-geom-scf-spinfix Tue Jun 2 15:39:59 2020 +0100
REM Functional Perdew Burke Ernzerhof Relativity Koelling-Harmon Dispersion off
REM Cut-off 340.0000 eV Grid scale 1.7500 Gmax 16.5316 1/A FBSC none
REM MP grid 3 3 2 Offset 0.000 0.000 0.000 No. kpts 9 Spacing 0.07
REM Total runtime: 88291.2 s
REM Overall efficiency: 72.5833 %
REM
REM
REM
REM compiler GCC version 4.9.2
REM options -cpp -iprefix /lustre/shared/ucl/apps/gcc/4.9.2/bin/../lib/gcc/x86_64-unknown-linux-gnu/4.9.2/ -mtune=corei7 -march=x86-64 -g -Og
REM COMMAND_LINE
REM seed -2023581644 -1837674069 -2110701470 -1069955663 -1354992395 756897239 470974617 1659528407 -704513765 -1051043818 1733183445 -1761740461
REM
REM S 3|1.8|5|6|7|30:31:32(qc=5)
REM O 2|1.5|12|13|15|20:21(qc=5)
REM Li 1|1.3|8|9|10|10U:20(qc=5)
REM Fe 3|2.2|2.0|1.0|8|9|10|40:41:32(qc=5)
REM 
CELL 1.54180    6.10443    6.80301   10.80249  108.35366  113.45929   90.00000
LATT -1
SFAC Li O  S  Fe 
Li     1  0.5099670000000 -0.5129370000000 -0.3812700000000 1.0   0.01
Li     1 -0.5099670000000 -0.1316660000000  0.3812700000000 1.0   0.01
Li     1 -0.2968800000000  0.1805580000000  0.0854140000000 1.0  -0.06
Li     1  0.2968800000000  0.0951440000000 -0.0854140000000 1.0  -0.06
Li     1  0.0606200000000  0.1737410000000  0.4399460000000 1.0  -0.06
Li     1 -0.0606200000000 -0.2662050000000 -0.4399460000000 1.0  -0.06
Li     1 -0.2191780000000  0.3884410000000 -0.0641140000000 1.0   0.01
Li     1  0.2191780000000 -0.5474450000000  0.0641140000000 1.0   0.01
O      2 -0.2927840000000 -0.3291460000000  0.3603030000000 1.0   0.34
O      2  0.2927840000000  0.3105510000000 -0.3603030000000 1.0   0.34
O      2  0.4266600000000  0.2435570000000  0.1224220000000 1.0   0.29
O      2 -0.4266600000000  0.1211360000000 -0.1224220000000 1.0   0.29
O      2  0.0239160000000  0.2596180000000 -0.1352520000000 1.0   0.30
O      2 -0.0239160000000 -0.6051290000000  0.1352520000000 1.0   0.30
S      3 -0.3018860000000  0.2236330000000  0.4864150000000 1.0   0.24
S      3  0.3018860000000 -0.2627820000000 -0.4864150000000 1.0   0.24
S      3 -0.0158760000000 -0.2934490000000 -0.2097560000000 1.0   0.28
S      3  0.0158760000000 -0.0836930000000  0.2097560000000 1.0   0.28
Fe     4 -0.0461340000000  0.6238780000000  0.2869560000000 1.0   3.65
Fe     4  0.0461340000000  0.3369220000000 -0.2869560000000 1.0   3.65
Fe     4  0.1573100000000  0.1591870000000  0.1543080000000 1.0   3.49
Fe     4 -0.1573100000000  0.0048790000000 -0.1543080000000 1.0   3.49
Fe     4  0.3967980000000  0.0653430000000 -0.3253320000000 1.0   3.51
Fe     4 -0.3967980000000  0.3906750000000  0.3253320000000 1.0   3.51
END
