TITL LFSO-Li6FeSO3-200909-213319-1c00ea -0.2967 241.519308 -3.67986996E+003 4.00028 4.31552 11 (Cm) n - 1
REM
REM Run started: Thu, 10 Sep 2020 00:35:58 +0100 in /lustre/scratch/uccabz1/launch_tmp/launcher_2020-09-09-20-33-17-786129
REM CASTEP 20.1 from code version af48c487+ pr-geom-scf-spinfix Tue Jun 2 15:39:59 2020 +0100
REM Functional Perdew Burke Ernzerhof Relativity Koelling-Harmon Dispersion off
REM Cut-off 340.0000 eV Grid scale 1.7500 Gmax 16.5316 1/A FBSC none
REM MP grid 4 4 3 Offset 0.000 0.000 0.000 No. kpts 16 Spacing 0.07
REM Total runtime: 13742.2 s
REM Overall efficiency: 90.25 %
REM
REM
REM
REM compiler GCC version 4.9.2
REM options -cpp -iprefix /lustre/shared/ucl/apps/gcc/4.9.2/bin/../lib/gcc/x86_64-unknown-linux-gnu/4.9.2/ -mtune=corei7 -march=x86-64 -g -Og
REM COMMAND_LINE
REM seed -1872551434 354986645 822119011 1398693546 1192866535 345915033 -114468414 879573606 13940343 200643523 1983690450 -910877393
REM
REM S 3|1.8|5|6|7|30:31:32(qc=5)
REM O 2|1.5|12|13|15|20:21(qc=5)
REM Li 1|1.3|8|9|10|10U:20(qc=5)
REM Fe 3|2.2|2.0|1.0|8|9|10|40:41:32(qc=5)
REM 
CELL 1.54180    6.97507    6.97507   13.52666   41.11772   41.11772   70.19580
LATT -1
SFAC Li O  S  Fe 
Li     1 -0.0274900000000  0.2836640000000  0.4148090000000 1.0   0.03
Li     1  0.2836640000000 -0.0274900000000  0.4148090000000 1.0   0.03
Li     1  0.2665010000000  0.7135320000000 -0.7058150000000 1.0  -0.04
Li     1  0.7135320000000  0.2665010000000 -0.7058150000000 1.0  -0.04
Li     1 -0.3618170000000  0.0478620000000 -0.1720530000000 1.0  -0.03
Li     1  0.0478620000000 -0.3618170000000 -0.1720530000000 1.0  -0.03
O      2  0.4161070000000 -0.1764500000000 -0.4654340000000 1.0   0.19
O      2 -0.1764500000000  0.4161070000000 -0.4654340000000 1.0   0.19
O      2 -0.0100000000000 -0.0100000000000  0.4130750000000 1.0   0.23
S      3 -0.3736450000000 -0.3736450000000  0.0876480000000 1.0   0.01
Fe     4 -0.2838440000000 -0.2838440000000  0.5212200000000 1.0   3.46
END
