TITL LFSO-Li6FeS2O2-200920-194641-24ced8 -0.0206 145.120770 -3.54690109E+003 3.99983 4.09734 11 (P-1) n - 1
REM
REM Run started: Sun, 20 Sep 2020 23:34:46 +0100 in /lustre/scratch/uccabz1/launch_tmp/launcher_2020-09-20-18-46-40-176009
REM CASTEP 20.1 from code version af48c487+ pr-geom-scf-spinfix Tue Jun 2 15:39:59 2020 +0100
REM Functional Perdew Burke Ernzerhof Relativity Koelling-Harmon Dispersion off
REM Cut-off 340.0000 eV Grid scale 1.7500 Gmax 16.5316 1/A FBSC none
REM MP grid 5 3 3 Offset 0.000 0.000 0.000 No. kpts 23 Spacing 0.07
REM Total runtime: 14966 s
REM Overall efficiency: 96.4615 %
REM
REM
REM
REM compiler GCC version 4.9.2
REM options -cpp -iprefix /lustre/shared/ucl/apps/gcc/4.9.2/bin/../lib/gcc/x86_64-unknown-linux-gnu/4.9.2/ -mtune=corei7 -march=x86-64 -g -Og
REM COMMAND_LINE
REM seed -358508210 1621701354 242727542 529064206 -1740034128 -787092261 513288543 1680541861 -78101684 280517052 -1530309934 -1027321377
REM
REM S 3|1.8|5|6|7|30:31:32(qc=5)
REM O 2|1.5|12|13|15|20:21(qc=5)
REM Li 1|1.3|8|9|10|10U:20(qc=5)
REM Fe 3|2.2|2.0|1.0|8|9|10|40:41:32(qc=5)
REM 
CELL 1.54180    3.67816    6.80056    6.93232   95.54661  120.92856   77.36981
LATT -1
SFAC Li O  S  Fe 
Li     1  0.1037560000000 -0.1253900000000  0.3476790000000 1.0   0.04
Li     1 -0.1037560000000  0.1253900000000 -0.3476790000000 1.0   0.04
Li     1  0.3827530000000 -0.1803520000000  0.0299120000000 1.0  -0.06
Li     1 -0.3827530000000  0.1803520000000 -0.0299120000000 1.0  -0.06
Li     1  0.0353600000000 -0.3725000000000 -0.3543330000000 1.0  -0.03
Li     1 -0.0353600000000  0.3725000000000  0.3543330000000 1.0  -0.03
O      2 -0.1206450000000 -0.3803040000000  0.2235460000000 1.0   0.18
O      2  0.1206450000000  0.3803040000000 -0.2235460000000 1.0   0.18
S      3  0.5745030000000 -0.1369320000000 -0.2473370000000 1.0   0.08
S      3 -0.5745030000000  0.1369320000000  0.2473370000000 1.0   0.08
Fe     4  0.0000000000000 -0.5000000000000  0.0000000000000 1.0   3.60
END
