TITL LFSO-Li6FeSO3-200909-234151-0b3938 0.0047 154.170817 -3.67966701E+003 4.00001 4.09207 11 (Cm) n - 1
REM
REM Run started: Thu, 10 Sep 2020 01:51:42 +0100 in /lustre/scratch/uccabz1/launch_tmp/launcher_2020-09-09-22-41-49-582650
REM CASTEP 20.1 from code version af48c487+ pr-geom-scf-spinfix Tue Jun 2 15:39:59 2020 +0100
REM Functional Perdew Burke Ernzerhof Relativity Koelling-Harmon Dispersion off
REM Cut-off 340.0000 eV Grid scale 1.7500 Gmax 16.5316 1/A FBSC none
REM MP grid 4 4 3 Offset 0.000 0.000 0.000 No. kpts 16 Spacing 0.07
REM Total runtime: 7943.02 s
REM Overall efficiency: 83.5455 %
REM
REM
REM
REM compiler GCC version 4.9.2
REM options -cpp -iprefix /lustre/shared/ucl/apps/gcc/4.9.2/bin/../lib/gcc/x86_64-unknown-linux-gnu/4.9.2/ -mtune=corei7 -march=x86-64 -g -Og
REM COMMAND_LINE
REM seed -1208246595 588866059 -761807048 1265761384 -567970292 1006106525 378292113 695286119 -1979268818 -810611880 -1542959920 -1867847914
REM
REM S 3|1.8|5|6|7|30:31:32(qc=5)
REM O 2|1.5|12|13|15|20:21(qc=5)
REM Li 1|1.3|8|9|10|10U:20(qc=5)
REM Fe 3|2.2|2.0|1.0|8|9|10|40:41:32(qc=5)
REM 
CELL 1.54180    4.84933    4.84933    9.02422   65.01285   65.01285  101.84182
LATT -1
SFAC Li O  S  Fe 
Li     1 -0.2923350000000  0.0731230000000  0.4832280000000 1.0   0.03
Li     1 -0.9268770000000 -0.2923350000000  0.4832280000000 1.0   0.03
Li     1 -0.2240300000000 -0.5607590000000  0.0881450000000 1.0   0.01
Li     1 -0.5607590000000 -0.2240300000000  0.0881450000000 1.0   0.01
Li     1 -0.0893900000000  0.2489520000000 -0.2428270000000 1.0  -0.08
Li     1  0.2489520000000 -0.0893900000000 -0.2428270000000 1.0  -0.08
O      2  0.6743980000000  0.2712700000000 -0.3548890000000 1.0   0.14
O      2  0.2712700000000 -0.3256020000000 -0.3548890000000 1.0   0.14
O      2 -0.0924210000000 -0.0924210000000 -0.0409480000000 1.0   0.18
S      3 -0.7984260000000  0.2015740000000  0.1645590000000 1.0   0.03
Fe     4  0.3193630000000  0.3193630000000 -0.1592320000000 1.0   3.58
END
