TITL LFSO-LiFe3SO4-200908-231356-02092f -0.0256 229.369504 -9.68894276E+003 2.92777 3.63146 18 (Pm) n - 1
REM
REM Run started: Wed, 09 Sep 2020 16:51:56 +0100 in /lustre/scratch/uccabz1/launch_tmp/launcher_2020-09-08-22-13-55-134488
REM CASTEP 20.1 from code version af48c487+ pr-geom-scf-spinfix Tue Jun 2 15:39:59 2020 +0100
REM Functional Perdew Burke Ernzerhof Relativity Koelling-Harmon Dispersion off
REM Cut-off 340.0000 eV Grid scale 1.7500 Gmax 16.5316 1/A FBSC none
REM MP grid 3 3 2 Offset 0.000 0.000 0.000 No. kpts 6 Spacing 0.07
REM Total runtime: 65411.9 s
REM Overall efficiency: 97.9091 %
REM
REM
REM
REM compiler GCC version 4.9.2
REM options -cpp -iprefix /lustre/shared/ucl/apps/gcc/4.9.2/bin/../lib/gcc/x86_64-unknown-linux-gnu/4.9.2/ -mtune=corei7 -march=x86-64 -g -Og
REM COMMAND_LINE
REM seed 2052034327 732259519 614656021 716056757 -1442263742 1062758072 525709602 223419075 1175571898 1084333758 1016984971 -738866238
REM
REM S 3|1.8|5|6|7|30:31:32(qc=5)
REM O 2|1.5|12|13|15|20:21(qc=5)
REM Li 1|1.3|8|9|10|10U:20(qc=5)
REM Fe 3|2.2|2.0|1.0|8|9|10|40:41:32(qc=5)
REM 
CELL 1.54180    5.37900    5.69508    8.11576   90.00000   67.30664   90.00000
LATT -1
SFAC Li O  S  Fe 
Li     1 -0.1715300000000 -0.2344250000000 -0.1876330000000 1.0   0.00
Li     1 -0.1715300000000  0.2344250000000 -0.1876330000000 1.0   0.00
O      2 -0.0378230000000 -0.2731670000000 -0.4341770000000 1.0   0.02
O      2 -0.0378230000000  0.2731670000000 -0.4341770000000 1.0   0.02
O      2  0.0731400000000  0.2608570000000  0.2328720000000 1.0   0.07
O      2  0.0731400000000 -0.2608570000000  0.2328720000000 1.0   0.07
O      2 -0.4509010000000 -0.2295050000000  0.0337200000000 1.0   0.13
O      2 -0.4509010000000  0.2295050000000  0.0337200000000 1.0   0.13
O      2 -0.5866750000000  0.0000000000000  0.3893410000000 1.0   0.01
O      2  0.5894020000000 -0.5000000000000  0.4407240000000 1.0  -0.03
S      3  0.2348200000000  0.0000000000000 -0.1865620000000 1.0   0.02
S      3  0.2250710000000 -0.5000000000000 -0.2187550000000 1.0  -0.02
Fe     4  0.3153980000000  0.2787540000000 -0.4907120000000 1.0   0.04
Fe     4  0.3153980000000 -0.2787540000000 -0.4907120000000 1.0   0.04
Fe     4  0.2519730000000 -0.2871640000000 -0.0013370000000 1.0   1.06
Fe     4  0.2519730000000  0.2871640000000 -0.0013370000000 1.0   1.06
Fe     4 -0.0510780000000  0.5000000000000 -0.5879280000000 1.0   0.05
Fe     4  0.3321380000000  0.0000000000000  0.1830080000000 1.0   0.27
END
