TITL LFSO-Li6FeSO3-200909-205317-5d1187 0.4506 454.840764 -7.35234425E+003 2.97566 5.73940 22 (P3) n - 1
REM
REM Run started: Thu, 10 Sep 2020 17:08:48 +0100 in /lustre/scratch/uccabz1/launch_tmp/launcher_2020-09-10-11-36-24-546442
REM CASTEP 20.1 from code version af48c487+ pr-geom-scf-spinfix Tue Jun 2 15:39:59 2020 +0100
REM Functional Perdew Burke Ernzerhof Relativity Koelling-Harmon Dispersion off
REM Cut-off 340.0000 eV Grid scale 1.7500 Gmax 16.5316 1/A FBSC none
REM MP grid 3 3 1 Offset 0.000 0.000 0.000 No. kpts 3 Spacing 0.07
REM Total runtime: 26499.9 s
REM Overall efficiency: 75.6154 %
REM
REM
REM
REM compiler GCC version 4.9.2
REM options -cpp -iprefix /lustre/shared/ucl/apps/gcc/4.9.2/bin/../lib/gcc/x86_64-unknown-linux-gnu/4.9.2/ -mtune=corei7 -march=x86-64 -g -Og
REM COMMAND_LINE
REM seed -1729651909 -1022458057 -2084149862 -19844223 1633289577 1916755268 1112680256 2078397924 -1385767507 -1922596278 501089234 -1027243014
REM
REM S 3|1.8|5|6|7|30:31:32(qc=5)
REM O 2|1.5|12|13|15|20:21(qc=5)
REM Li 1|1.3|8|9|10|10U:20(qc=5)
REM Fe 3|2.2|2.0|1.0|8|9|10|40:41:32(qc=5)
REM 
CELL 1.54180    5.95764    5.95764   14.79721   90.00000   90.00000  120.00000
LATT -1
SFAC Li O  S  Fe 
Li     1 -0.2032840000000 -0.3749860000000 -0.0912920000000 1.0   0.11
Li     1  0.3749860000000  0.1717030000000 -0.0912920000000 1.0   0.11
Li     1 -0.1717030000000  0.2032840000000 -0.0912920000000 1.0   0.11
Li     1 -0.2744470000000  0.0738200000000 -0.4296670000000 1.0   0.02
Li     1 -0.0738200000000 -0.3482670000000 -0.4296670000000 1.0   0.02
Li     1  0.3482670000000  0.2744470000000 -0.4296670000000 1.0   0.02
Li     1 -0.3772650000000 -0.2159180000000  0.0340280000000 1.0   0.10
Li     1  0.2159180000000 -0.1613470000000  0.0340280000000 1.0   0.10
Li     1  0.1613470000000  0.3772650000000  0.0340280000000 1.0   0.10
Li     1  0.3452170000000  0.3400330000000  0.2433030000000 1.0  -0.02
Li     1 -0.3400330000000  0.0051840000000  0.2433030000000 1.0  -0.02
Li     1 -0.0051840000000 -0.3452170000000  0.2433030000000 1.0  -0.02
O      2 -0.4870910000000 -0.0248180000000 -0.0429250000000 1.0  -0.05
O      2  0.0248180000000 -0.4622730000000 -0.0429250000000 1.0  -0.05
O      2  0.4622730000000  0.4870910000000 -0.0429250000000 1.0  -0.05
O      2  0.3646580000000 -0.0316850000000  0.5383850000000 1.0   0.21
O      2  0.0316850000000  0.3963430000000  0.5383850000000 1.0   0.21
O      2 -0.3963430000000 -0.3646580000000  0.5383850000000 1.0   0.21
S      3  0.0000000000000 -0.0000000000000  0.2978000000000 1.0   0.03
S      3  0.3333330000000 -0.3333330000000 -0.2543330000000 1.0   0.27
Fe     4  0.3333330000000 -0.3333330000000  0.5103930000000 1.0   2.58
Fe     4  0.3333330000000 -0.3333330000000 -0.1140470000000 1.0  -1.01
END
