TITL LFSO-Li2Fe4S2O3-200912-080004-c56b67 0.0130 323.521413 -1.15481535E+004 23.5358 24.3035 22 (P3) n - 1
REM
REM Run started: Mon, 14 Sep 2020 08:20:24 +0100 in /lustre/scratch/uccabz1/launch_tmp/launcher_2020-09-14-06-57-07-987471
REM CASTEP 20.1 from code version af48c487+ pr-geom-scf-spinfix Tue Jun 2 15:39:59 2020 +0100
REM Functional Perdew Burke Ernzerhof Relativity Koelling-Harmon Dispersion off
REM Cut-off 340.0000 eV Grid scale 1.7500 Gmax 16.5316 1/A FBSC none
REM MP grid 2 3 3 Offset 0.000 0.000 0.000 No. kpts 5 Spacing 0.07
REM Total runtime: 95475.2 s
REM Overall efficiency: 89.7778 %
REM
REM
REM
REM compiler GCC version 4.9.2
REM options -cpp -iprefix /lustre/shared/ucl/apps/gcc/4.9.2/bin/../lib/gcc/x86_64-unknown-linux-gnu/4.9.2/ -mtune=corei7 -march=x86-64 -g -Og
REM COMMAND_LINE
REM seed -181122800 903602752 918212766 -1689166481 910654426 1556419888 448656033 863014720 1501437904 1295002977 -1325395736 2057883642
REM
REM S 3|1.8|5|6|7|30:31:32(qc=5)
REM O 2|1.5|12|13|15|20:21(qc=5)
REM Li 1|1.3|8|9|10|10U:20(qc=5)
REM Fe 3|2.2|2.0|1.0|8|9|10|40:41:32(qc=5)
REM 
CELL 1.54180    7.69413    6.96797    6.96797  120.00000   90.00000   90.00000
LATT -1
SFAC Li O  S  Fe 
Li     1  0.1901310000000  0.1181180000000 -0.2977050000000 1.0   0.00
Li     1  0.1901310000000  0.2977050000000  0.4158220000000 1.0   0.00
Li     1  0.1901310000000 -0.4158220000000 -0.1181180000000 1.0   0.00
Li     1  0.2701070000000  0.0000000000000 -0.0000000000000 1.0  -0.02
O      2  0.1437250000000  0.0339470000000  0.4096390000000 1.0   0.31
O      2  0.1437250000000 -0.4096390000000 -0.3756910000000 1.0   0.31
O      2  0.1437250000000  0.3756910000000 -0.0339470000000 1.0   0.31
O      2  0.3580940000000 -0.0754090000000 -0.3013310000000 1.0   0.32
O      2  0.3580940000000  0.3013310000000  0.2259220000000 1.0   0.32
O      2  0.3580940000000 -0.2259220000000  0.0754090000000 1.0   0.32
S      3 -0.2201570000000  0.4328240000000  0.4329730000000 1.0   0.07
S      3 -0.2201570000000 -0.4329730000000 -0.0001490000000 1.0   0.07
S      3 -0.2201570000000  0.0001490000000 -0.4328240000000 1.0   0.07
S      3 -0.2259310000000  0.0000000000000  0.0000000000000 1.0   0.02
Fe     4 -0.4189470000000  0.2697680000000  0.1632010000000 1.0   2.53
Fe     4 -0.4189470000000 -0.1632010000000  0.1065660000000 1.0   2.53
Fe     4 -0.4189470000000 -0.1065660000000 -0.2697680000000 1.0   2.53
Fe     4 -0.0308960000000 -0.2872940000000 -0.4340660000000 1.0   2.85
Fe     4 -0.0308960000000  0.4340660000000  0.1467720000000 1.0   2.85
Fe     4 -0.0308960000000 -0.1467720000000  0.2872940000000 1.0   2.85
Fe     4 -0.3159230000000 -0.3333330000000  0.3333330000000 1.0   1.59
Fe     4  0.3381430000000 -0.3333330000000  0.3333330000000 1.0   3.66
END
