TITL LFSO-Li4Fe3SO4-200928-142427-717be2 0.2647 339.329867 -1.08918524E+004 22.0594 22.5276 24 (P-1) n - 1
REM
REM Run started: Tue, 29 Sep 2020 07:31:51 +0100 in /lustre/scratch/uccabz1/launch_tmp/launcher_2020-09-29-05-45-05-172326
REM CASTEP 20.1 from code version af48c487+ pr-geom-scf-spinfix Tue Jun 2 15:39:59 2020 +0100
REM Functional Perdew Burke Ernzerhof Relativity Koelling-Harmon Dispersion off
REM Cut-off 340.0000 eV Grid scale 1.7500 Gmax 16.5316 1/A FBSC none
REM MP grid 3 2 3 Offset 0.000 0.000 0.000 No. kpts 9 Spacing 0.07
REM Total runtime: 61772.8 s
REM Overall efficiency: 98.6 %
REM
REM
REM
REM compiler GCC version 4.9.2
REM options -cpp -iprefix /lustre/shared/ucl/apps/gcc/4.9.2/bin/../lib/gcc/x86_64-unknown-linux-gnu/4.9.2/ -mtune=corei7 -march=x86-64 -g -Og
REM COMMAND_LINE
REM seed -133137317 -1703891239 -972608100 -211468308 417952509 1128706304 -1842502808 -218579463 361817212 1547793264 1236936255 -1489188204
REM
REM S 3|1.8|5|6|7|30:31:32(qc=5)
REM O 2|1.5|12|13|15|20:21(qc=5)
REM Li 1|1.3|8|9|10|10U:20(qc=5)
REM Fe 3|2.2|2.0|1.0|8|9|10|40:41:32(qc=5)
REM 
CELL 1.54180    5.62937    8.93227    8.46709   55.14105   77.77048   88.14732
LATT -1
SFAC Li O  S  Fe 
Li     1  0.0537870000000 -0.2189870000000  0.1372400000000 1.0   0.01
Li     1 -0.0537870000000  0.2189870000000 -0.1372400000000 1.0   0.01
Li     1  0.3547900000000 -0.3048820000000  0.4139530000000 1.0   0.00
Li     1 -0.3547900000000  0.3048820000000 -0.4139530000000 1.0   0.00
Li     1 -0.4536510000000 -0.0227960000000 -0.2110120000000 1.0  -0.00
Li     1  0.4536510000000  0.0227960000000  0.2110120000000 1.0  -0.00
Li     1  0.0764450000000  0.3069930000000  0.0849300000000 1.0  -0.06
Li     1 -0.0764450000000 -0.3069930000000 -0.0849300000000 1.0  -0.06
O      2 -0.2597330000000  0.2456650000000  0.0608510000000 1.0   0.17
O      2  0.2597330000000 -0.2456650000000 -0.0608510000000 1.0   0.17
O      2  0.5809050000000 -0.1449170000000  0.4451150000000 1.0   0.37
O      2 -0.5809050000000  0.1449170000000 -0.4451150000000 1.0   0.37
O      2  0.0433750000000 -0.1704820000000 -0.3496100000000 1.0   0.43
O      2 -0.0433750000000  0.1704820000000  0.3496100000000 1.0   0.43
O      2 -0.1647650000000  0.1185120000000 -0.2527730000000 1.0   0.30
O      2  0.1647650000000 -0.1185120000000  0.2527730000000 1.0   0.30
S      3  0.6789460000000  0.5714620000000  0.2431780000000 1.0   0.16
S      3 -0.6789460000000 -0.5714620000000 -0.2431780000000 1.0   0.16
Fe     4 -0.0782350000000 -0.0887880000000  0.4185920000000 1.0   3.91
Fe     4  0.0782350000000  0.0887880000000 -0.4185920000000 1.0   3.91
Fe     4 -0.3818180000000  0.2603380000000  0.2947710000000 1.0   3.49
Fe     4  0.3818180000000 -0.2603380000000 -0.2947710000000 1.0   3.49
Fe     4 -0.4472470000000  0.4266020000000 -0.0668350000000 1.0   2.27
Fe     4  0.4472470000000 -0.4266020000000  0.0668350000000 1.0   2.27
END
