TITL LFSO-Li2Fe4S4O-200911-204448-9d0112 -0.6871 186.769181 -5.50346611E+003 -6.23053 7.16800 11 (P3) n - 1
REM
REM Run started: Sat, 12 Sep 2020 09:34:12 +0100 in /lustre/scratch/uccabz1/launch_tmp/launcher_2020-09-11-19-44-46-683030
REM CASTEP 20.1 from code version af48c487+ pr-geom-scf-spinfix Tue Jun 2 15:39:59 2020 +0100
REM Functional Perdew Burke Ernzerhof Relativity Koelling-Harmon Dispersion off
REM Cut-off 340.0000 eV Grid scale 1.7500 Gmax 16.5316 1/A FBSC none
REM MP grid 4 4 2 Offset 0.000 0.000 0.000 No. kpts 16 Spacing 0.07
REM Total runtime: 50418.3 s
REM Overall efficiency: 97.5833 %
REM
REM
REM
REM compiler GCC version 4.9.2
REM options -cpp -iprefix /lustre/shared/ucl/apps/gcc/4.9.2/bin/../lib/gcc/x86_64-unknown-linux-gnu/4.9.2/ -mtune=corei7 -march=x86-64 -g -Og
REM COMMAND_LINE
REM seed -131785643 -491066732 -1200704465 296921835 -2107796169 572929064 1417656517 -1818194227 -1251443548 -85373791 29729327 1822907579
REM
REM S 3|1.8|5|6|7|30:31:32(qc=5)
REM O 2|1.5|12|13|15|20:21(qc=5)
REM Li 1|1.3|8|9|10|10U:20(qc=5)
REM Fe 3|2.2|2.0|1.0|8|9|10|40:41:32(qc=5)
REM 
CELL 1.54180    4.93972    4.93972    8.83831   90.00000   90.00000  120.00000
LATT -1
SFAC Li O  S  Fe 
Li     1  0.0000000000000 -0.0000000000000  0.8437920000000 1.0  -0.01
Li     1 -0.3333330000000  0.3333330000000  0.0914880000000 1.0   0.10
O      2  0.0000000000000 -0.0000000000000  0.1651690000000 1.0  -0.07
S      3  0.0299260000000  0.3465900000000 -0.4622530000000 1.0   0.00
S      3 -0.3465900000000 -0.3166640000000 -0.4622530000000 1.0   0.00
S      3  0.3166640000000 -0.0299260000000 -0.4622530000000 1.0   0.00
S      3 -0.3333330000000  0.3333330000000 -0.1649780000000 1.0   0.19
Fe     4  0.1825770000000 -0.1598530000000  0.3010250000000 1.0  -1.83
Fe     4  0.1598530000000  0.3424290000000  0.3010250000000 1.0  -1.83
Fe     4 -0.3424290000000 -0.1825770000000  0.3010250000000 1.0  -1.83
Fe     4 -0.3333330000000  0.3333330000000  0.3996190000000 1.0  -0.96
END
