TITL LFSO-Li2Fe2S3O-200913-041521-0c563e 0.0715 245.468433 -6.95157078E+003 12.0361 12.7751 16 (Pcc2) n - 1
REM
REM Run started: Sun, 13 Sep 2020 07:14:22 +0100 in /lustre/scratch/uccabz1/launch_tmp/launcher_2020-09-13-03-15-19-630211
REM CASTEP 20.1 from code version af48c487+ pr-geom-scf-spinfix Tue Jun 2 15:39:59 2020 +0100
REM Functional Perdew Burke Ernzerhof Relativity Koelling-Harmon Dispersion off
REM Cut-off 340.0000 eV Grid scale 1.7500 Gmax 16.5316 1/A FBSC none
REM MP grid 3 3 3 Offset 0.000 0.000 0.000 No. kpts 8 Spacing 0.07
REM Total runtime: 10820.8 s
REM Overall efficiency: 91.8889 %
REM
REM
REM
REM compiler GCC version 4.9.2
REM options -cpp -iprefix /lustre/shared/ucl/apps/gcc/4.9.2/bin/../lib/gcc/x86_64-unknown-linux-gnu/4.9.2/ -mtune=corei7 -march=x86-64 -g -Og
REM COMMAND_LINE
REM seed -581926490 -1013004318 -705703546 -1492040130 1030775417 -1528822630 107248053 -1254668338 -1257918085 -61598973 -812483190 29674877
REM
REM S 3|1.8|5|6|7|30:31:32(qc=5)
REM O 2|1.5|12|13|15|20:21(qc=5)
REM Li 1|1.3|8|9|10|10U:20(qc=5)
REM Fe 3|2.2|2.0|1.0|8|9|10|40:41:32(qc=5)
REM 
CELL 1.54180    5.63078    7.03281    6.19867   90.00000   90.00000   90.00000
LATT -1
SFAC Li O  S  Fe 
Li     1  0.3825390000000  0.2382140000000 -0.2159190000000 1.0  -0.04
Li     1 -0.3825390000000  0.2382140000000  0.2159190000000 1.0  -0.04
Li     1 -0.3825390000000 -0.2617860000000 -0.2159190000000 1.0  -0.04
Li     1  0.3825390000000 -0.2617860000000  0.2159190000000 1.0  -0.04
O      2  0.5000000000000  0.1846720000000  0.5000000000000 1.0   0.25
O      2  0.5000000000000 -0.3153280000000  0.5000000000000 1.0   0.25
S      3 -0.1128900000000 -0.0667100000000  0.2781360000000 1.0   0.06
S      3  0.1128900000000 -0.0667100000000 -0.2781360000000 1.0   0.06
S      3  0.1128900000000  0.4332900000000  0.2781360000000 1.0   0.06
S      3 -0.1128900000000  0.4332900000000 -0.2781360000000 1.0   0.06
S      3 -0.5000000000000 -0.5130920000000  0.0000000000000 1.0  -0.09
S      3  0.5000000000000 -0.0130920000000  0.0000000000000 1.0  -0.09
Fe     4 -0.1957260000000 -0.3886040000000  0.4118720000000 1.0   2.91
Fe     4  0.1957260000000 -0.3886040000000 -0.4118720000000 1.0   2.91
Fe     4  0.1957260000000  0.1113960000000  0.4118720000000 1.0   2.91
Fe     4 -0.1957260000000  0.1113960000000 -0.4118720000000 1.0   2.91
END
