TITL LFSO-LiFeSO-200909-035650-144ef1 0.0575 149.282173 -5.41546095E+003 0.827034 9.26476 12 (C2/m) n - 1
REM
REM Run started: Wed, 09 Sep 2020 05:55:52 +0100 in /lustre/scratch/uccabz1/launch_tmp/launcher_2020-09-09-02-56-48-564731
REM CASTEP 20.1 from code version af48c487+ pr-geom-scf-spinfix Tue Jun 2 15:39:59 2020 +0100
REM Functional Perdew Burke Ernzerhof Relativity Koelling-Harmon Dispersion off
REM Cut-off 340.0000 eV Grid scale 1.7500 Gmax 16.5316 1/A FBSC none
REM MP grid 4 4 2 Offset 0.000 0.000 0.000 No. kpts 16 Spacing 0.07
REM Total runtime: 7201.51 s
REM Overall efficiency: 93.6667 %
REM
REM
REM
REM compiler GCC version 4.9.2
REM options -cpp -iprefix /lustre/shared/ucl/apps/gcc/4.9.2/bin/../lib/gcc/x86_64-unknown-linux-gnu/4.9.2/ -mtune=corei7 -march=x86-64 -g -Og
REM COMMAND_LINE
REM seed 319378474 -2143616876 -186342309 870587406 -479747205 -186649010 -60934681 1167057231 554405151 1122452854 -436948516 1619719067
REM
REM S 3|1.8|5|6|7|30:31:32(qc=5)
REM O 2|1.5|12|13|15|20:21(qc=5)
REM Li 1|1.3|8|9|10|10U:20(qc=5)
REM Fe 3|2.2|2.0|1.0|8|9|10|40:41:32(qc=5)
REM 
CELL 1.54180    4.14796    5.00783    7.61067  109.20813   90.54567   90.00000
LATT -1
SFAC Li O  S  Fe 
Li     1 -0.0144990000000 -0.1309690000000 -0.2619380000000 1.0   0.02
Li     1  0.0144990000000  0.1309690000000  0.2619380000000 1.0   0.02
Li     1  0.0000000000000 -0.5000000000000 -0.0000000000000 1.0   0.03
O      2  0.4870590000000 -0.1525000000000 -0.3050010000000 1.0   0.04
O      2 -0.4870590000000  0.1525000000000  0.3050010000000 1.0   0.04
O      2  0.0000000000000 -0.0000000000000 -0.0000000000000 1.0  -0.24
S      3 -0.1134320000000  0.3241950000000  0.6483900000000 1.0   0.06
S      3  0.1134320000000 -0.3241950000000 -0.6483900000000 1.0   0.06
S      3  0.5000000000000  0.5000000000000 -0.0000000000000 1.0  -0.34
Fe     4 -0.5000000000000  0.5000000000000  0.5000000000000 1.0   2.38
Fe     4 -0.5000000000000 -0.0000000000000  0.5000000000000 1.0   2.38
Fe     4 -0.5000000000000 -0.0000000000000 -0.0000000000000 1.0  -3.63
END
