TITL LFSO-Li3FeS2O-200911-181322-474769 0.0284 99.541126 -2.50881315E+003 2.43856 2.69462 7 (P2) n - 1
REM
REM Run started: Fri, 11 Sep 2020 18:44:04 +0100 in /lustre/scratch/uccabz1/launch_tmp/launcher_2020-09-11-17-13-21-239354
REM CASTEP 20.1 from code version af48c487+ pr-geom-scf-spinfix Tue Jun 2 15:39:59 2020 +0100
REM Functional Perdew Burke Ernzerhof Relativity Koelling-Harmon Dispersion off
REM Cut-off 340.0000 eV Grid scale 1.7500 Gmax 16.5316 1/A FBSC none
REM MP grid 5 5 2 Offset 0.000 0.000 0.000 No. kpts 15 Spacing 0.07
REM Total runtime: 1929.03 s
REM Overall efficiency: 90.4286 %
REM
REM
REM
REM compiler GCC version 4.9.2
REM options -cpp -iprefix /lustre/shared/ucl/apps/gcc/4.9.2/bin/../lib/gcc/x86_64-unknown-linux-gnu/4.9.2/ -mtune=corei7 -march=x86-64 -g -Og
REM COMMAND_LINE
REM seed -1993833027 1380980664 457890917 1913218521 1412820012 1591909256 448262886 -554679731 -2137354334 897350197 1387475793 719811427
REM
REM S 3|1.8|5|6|7|30:31:32(qc=5)
REM O 2|1.5|12|13|15|20:21(qc=5)
REM Li 1|1.3|8|9|10|10U:20(qc=5)
REM Fe 3|2.2|2.0|1.0|8|9|10|40:41:32(qc=5)
REM 
CELL 1.54180    3.29971    3.45036    9.51123  113.18556   90.00000   90.00000
LATT -1
SFAC Li O  S  Fe 
Li     1  0.0866640000000  0.3304960000000  0.3483270000000 1.0   0.01
Li     1  0.0866640000000 -0.3304960000000 -0.3483270000000 1.0   0.01
Li     1  0.6312210000000 -0.0000000000000  0.5000000000000 1.0  -0.01
O      2 -0.4461870000000 -0.5000000000000  0.5000000000000 1.0  -0.01
S      3  0.6493790000000  0.3196360000000 -0.1708200000000 1.0  -0.04
S      3  0.6493790000000 -0.3196360000000  0.1708200000000 1.0  -0.04
Fe     4 -0.3589970000000 -0.0000000000000 -0.0000000000000 1.0   2.52
END
