TITL LFSO-Li5FeS3O-200910-093107-c9144f 0.9349 1337.336910 -6.42963327E+003 5.97150 6.42990 20 (Cm) n - 1
REM
REM Run started: Fri, 11 Sep 2020 02:06:38 +0100 in /lustre/scratch/uccabz1/launch_tmp/launcher_2020-09-10-10-23-21-628752
REM CASTEP 20.1 from code version af48c487+ pr-geom-scf-spinfix Tue Jun 2 15:39:59 2020 +0100
REM Functional Perdew Burke Ernzerhof Relativity Koelling-Harmon Dispersion off
REM Cut-off 340.0000 eV Grid scale 1.7500 Gmax 16.5316 1/A FBSC none
REM MP grid 5 1 1 Offset 0.000 0.000 0.000 No. kpts 3 Spacing 0.07
REM Total runtime: 70888.5 s
REM Overall efficiency: 98.2308 %
REM
REM
REM
REM compiler GCC version 4.9.2
REM options -cpp -iprefix /lustre/shared/ucl/apps/gcc/4.9.2/bin/../lib/gcc/x86_64-unknown-linux-gnu/4.9.2/ -mtune=corei7 -march=x86-64 -g -Og
REM COMMAND_LINE
REM seed 1411826351 -900900281 53670827 -1006880118 573220593 -1502406921 -1941792264 -541755832 -261362266 -1180222953 -1184981220 -590024625
REM
REM S 3|1.8|5|6|7|30:31:32(qc=5)
REM O 2|1.5|12|13|15|20:21(qc=5)
REM Li 1|1.3|8|9|10|10U:20(qc=5)
REM Fe 3|2.2|2.0|1.0|8|9|10|40:41:32(qc=5)
REM 
CELL 1.54180    3.34583   25.53571   25.53571  141.97389   91.85460   91.85460
LATT -1
SFAC Li O  S  Fe 
Li     1  0.0314180000000 -0.0802380000000  0.3443780000000 1.0   0.01
Li     1  0.0314180000000  0.3443780000000 -0.0802380000000 1.0   0.01
Li     1 -0.5321310000000  0.0496990000000 -0.3138820000000 1.0   0.01
Li     1 -0.5321310000000 -0.3138820000000  0.0496990000000 1.0   0.01
Li     1  0.5619100000000 -0.1886140000000  0.3186200000000 1.0   0.01
Li     1  0.5619100000000  0.3186200000000 -0.1886140000000 1.0   0.01
Li     1 -0.1478510000000 -0.4353090000000  0.0879440000000 1.0   0.02
Li     1 -0.1478510000000  0.0879440000000 -0.4353090000000 1.0   0.02
Li     1  0.0296960000000  0.5171060000000 -0.0316940000000 1.0   0.02
Li     1  0.0296960000000 -0.0316940000000  0.5171060000000 1.0   0.02
O      2 -0.0448650000000  0.0393200000000 -0.3628400000000 1.0   0.37
O      2 -0.0448650000000 -0.3628400000000  0.0393200000000 1.0   0.37
S      3  0.4494460000000 -0.3225750000000  0.1832190000000 1.0   0.00
S      3  0.4494460000000  0.1832190000000 -0.3225750000000 1.0   0.00
S      3  0.5128850000000  0.4392660000000 -0.0485190000000 1.0   0.00
S      3  0.5128850000000 -0.0485190000000  0.4392660000000 1.0   0.00
S      3 -0.4779700000000 -0.1830610000000  0.2133280000000 1.0   0.11
S      3 -0.4779700000000  0.2133280000000 -0.1830610000000 1.0   0.11
Fe     4 -0.0273950000000  0.1585190000000 -0.2821110000000 1.0   2.44
Fe     4 -0.0273950000000 -0.2821110000000  0.1585190000000 1.0   2.44
END
