TITL LFSO-Li3Fe3S4O2-200930-002938-2e44a7 -0.0314 203.961319 -5.27992700E+003 8.74499 9.29880 12 (R3m) n - 1
REM
REM Run started: Wed, 30 Sep 2020 01:49:16 +0100 in /lustre/scratch/uccabz1/launch_tmp/launcher_2020-09-29-23-29-37-019903
REM CASTEP 20.1 from code version af48c487+ pr-geom-scf-spinfix Tue Jun 2 15:39:59 2020 +0100
REM Functional Perdew Burke Ernzerhof Relativity Koelling-Harmon Dispersion off
REM Cut-off 340.0000 eV Grid scale 1.7500 Gmax 16.5316 1/A FBSC none
REM MP grid 3 3 3 Offset 0.000 0.000 0.000 No. kpts 6 Spacing 0.07
REM Total runtime: 4859.31 s
REM Overall efficiency: 94.5 %
REM
REM
REM
REM compiler GCC version 4.9.2
REM options -cpp -iprefix /lustre/shared/ucl/apps/gcc/4.9.2/bin/../lib/gcc/x86_64-unknown-linux-gnu/4.9.2/ -mtune=corei7 -march=x86-64 -g -Og
REM COMMAND_LINE
REM seed -1527634982 -1325937393 -2055561527 -459897156 -539568571 719135862 -667587212 1970199908 -1318990671 -1898633509 -1197560281 -295036980
REM
REM S 3|1.8|5|6|7|30:31:32(qc=5)
REM O 2|1.5|12|13|15|20:21(qc=5)
REM Li 1|1.3|8|9|10|10U:20(qc=5)
REM Fe 3|2.2|2.0|1.0|8|9|10|40:41:32(qc=5)
REM 
CELL 1.54180    7.23112    7.23112    7.23112   49.96400   49.96400   49.96400
LATT -1
SFAC Li O  S  Fe 
Li     1  0.2577010000000  0.2605490000000 -0.2367010000000 1.0   0.03
Li     1  0.2605490000000 -0.2367010000000  0.2577010000000 1.0   0.03
Li     1 -0.2367010000000  0.2577010000000  0.2605490000000 1.0   0.03
O      2 -0.0859260000000 -0.0859260000000 -0.0859260000000 1.0   0.13
O      2  0.3531930000000  0.3531930000000  0.3531930000000 1.0   0.12
S      3  0.3939890000000 -0.1684840000000 -0.1706830000000 1.0  -0.02
S      3 -0.1684840000000 -0.1706830000000  0.3939890000000 1.0  -0.02
S      3 -0.1706830000000  0.3939890000000 -0.1684840000000 1.0  -0.02
S      3  0.1962540000000  0.1962540000000  0.1962540000000 1.0   0.14
Fe     4  0.1303200000000 -0.3964190000000  0.1288680000000 1.0   2.77
Fe     4 -0.3964190000000  0.1288680000000  0.1303200000000 1.0   2.77
Fe     4  0.1288680000000  0.1303200000000 -0.3964190000000 1.0   2.77
END
