TITL LFSO-Li3Fe3S4O2-200929-160246-0acb97 -0.0555 928.080985 -1.05541046E+004 -1.78018 9.00984 24 (Ama2) n - 1
REM
REM Run started: Wed, 30 Sep 2020 16:55:52 +0100 in /lustre/scratch/uccabz1/launch_tmp/launcher_2020-09-30-04-46-34-140466
REM CASTEP 20.1 from code version af48c487+ pr-geom-scf-spinfix Tue Jun 2 15:39:59 2020 +0100
REM Functional Perdew Burke Ernzerhof Relativity Koelling-Harmon Dispersion off
REM Cut-off 340.0000 eV Grid scale 1.7500 Gmax 16.5316 1/A FBSC none
REM MP grid 3 2 2 Offset 0.000 0.000 0.000 No. kpts 4 Spacing 0.07
REM Total runtime: 89437.9 s
REM Overall efficiency: 82.25 %
REM
REM
REM
REM compiler GCC version 4.9.2
REM options -cpp -iprefix /scratch/UCL/applications/gcc/4.9.2/bin/../lib/gcc/x86_64-unknown-linux-gnu/4.9.2/ -mtune=corei7 -march=x86-64 -g -O2
REM COMMAND_LINE
REM seed -2048119915 -1833681444 1147727627 947028077 781866492 1099011911 -1255747162 1821690936 -1342427144 -1525020265 -177640006 -724343927
REM
REM S 3|1.8|5|6|7|30:31:32(qc=5)
REM O 2|1.5|12|13|15|20:21(qc=5)
REM Li 1|1.3|8|9|10|10U:20(qc=5)
REM Fe 3|2.2|2.0|1.0|8|9|10|40:41:32(qc=5)
REM 
CELL 1.54180    6.54119   12.82792   12.78565  120.10944   90.00000   90.00000
LATT -1
SFAC Li O  S  Fe 
Li     1  0.5054190000000  0.0803570000000 -0.4002060000000 1.0  -0.01
Li     1 -0.5054190000000  0.5194380000000 -0.4002060000000 1.0  -0.01
Li     1  0.0054190000000  0.5194380000000 -0.4002060000000 1.0  -0.01
Li     1 -0.0054190000000  0.0803570000000 -0.4002060000000 1.0  -0.01
Li     1  0.2500000000000 -0.1101310000000 -0.2366030000000 1.0   0.00
Li     1 -0.2500000000000 -0.1264720000000 -0.2366030000000 1.0   0.00
O      2 -0.0375660000000  0.2192490000000  0.1488410000000 1.0   0.01
O      2  0.0375660000000 -0.0704080000000  0.1488410000000 1.0   0.01
O      2 -0.5375660000000 -0.0704080000000  0.1488410000000 1.0   0.01
O      2  0.5375660000000  0.2192490000000  0.1488410000000 1.0   0.01
S      3 -0.0858520000000  0.0353840000000 -0.2530400000000 1.0  -0.00
S      3  0.0858520000000 -0.2884240000000 -0.2530400000000 1.0  -0.00
S      3  0.4141480000000 -0.2884240000000 -0.2530400000000 1.0  -0.00
S      3 -0.4141480000000  0.0353840000000 -0.2530400000000 1.0  -0.00
S      3  0.5091880000000 -0.6284400000000  0.4042800000000 1.0  -0.02
S      3 -0.5091880000000  0.0327200000000  0.4042800000000 1.0  -0.02
S      3  0.0091880000000  0.0327200000000  0.4042800000000 1.0  -0.02
S      3 -0.0091880000000 -0.6284400000000  0.4042800000000 1.0  -0.02
Fe     4  0.4152310000000  0.2009150000000  0.2565330000000 1.0   0.76
Fe     4 -0.4152310000000  0.0556180000000  0.2565330000000 1.0   0.76
Fe     4 -0.0847690000000  0.0556180000000  0.2565330000000 1.0   0.76
Fe     4  0.0847690000000  0.2009150000000  0.2565330000000 1.0   0.76
Fe     4  0.2500000000000 -0.0222930000000  0.2582940000000 1.0  -2.36
Fe     4 -0.2500000000000  0.2805870000000  0.2582940000000 1.0  -2.36
END
