TITL LFSO-Li4Fe3S3O2-200926-152806-47df13 -0.0270 283.191477 -5.17538549E+003 9.73637 10.0819 12 (F222) n - 1
REM
REM Run started: Sat, 26 Sep 2020 19:07:31 +0100 in /lustre/scratch/uccabz1/launch_tmp/launcher_2020-09-26-14-28-05-097697
REM CASTEP 20.1 from code version af48c487+ pr-geom-scf-spinfix Tue Jun 2 15:39:59 2020 +0100
REM Functional Perdew Burke Ernzerhof Relativity Koelling-Harmon Dispersion off
REM Cut-off 340.0000 eV Grid scale 1.7500 Gmax 16.5316 1/A FBSC none
REM MP grid 3 3 3 Offset 0.000 0.000 0.000 No. kpts 8 Spacing 0.07
REM Total runtime: 15868.7 s
REM Overall efficiency: 97.2857 %
REM
REM
REM
REM compiler GCC version 4.9.2
REM options -cpp -iprefix /lustre/shared/ucl/apps/gcc/4.9.2/bin/../lib/gcc/x86_64-unknown-linux-gnu/4.9.2/ -mtune=corei7 -march=x86-64 -g -Og
REM COMMAND_LINE
REM seed 1960936850 -546376788 -962005999 240007349 652160235 1429773480 -1824728709 720885786 374355167 1526880258 1242426249 1109211698
REM
REM S 3|1.8|5|6|7|30:31:32(qc=5)
REM O 2|1.5|12|13|15|20:21(qc=5)
REM Li 1|1.3|8|9|10|10U:20(qc=5)
REM Fe 3|2.2|2.0|1.0|8|9|10|40:41:32(qc=5)
REM 
CELL 1.54180    8.31833    8.31833    6.36576  104.07559  104.07559  128.88584
LATT -1
SFAC Li O  S  Fe 
Li     1  0.1279580000000  0.3589320000000 -0.0859560000000 1.0  -0.04
Li     1 -0.3589320000000 -0.1279580000000  0.0859560000000 1.0  -0.04
Li     1 -0.2139140000000 -0.4448880000000 -0.0859560000000 1.0  -0.04
Li     1  0.4448880000000  0.2139140000000  0.0859560000000 1.0  -0.04
O      2  0.2450600000000  0.2450600000000  0.0000000000000 1.0   0.24
O      2 -0.2450600000000 -0.2450600000000  0.0000000000000 1.0   0.24
S      3  0.4125420000000 -0.0874580000000 -0.1749170000000 1.0   0.11
S      3  0.0874580000000 -0.4125420000000  0.1749170000000 1.0   0.11
S      3 -0.2500000000000  0.2500000000000  0.5000000000000 1.0   0.06
Fe     4  0.0591980000000 -0.4408020000000  0.5000000000000 1.0   2.77
Fe     4  0.4408020000000 -0.0591980000000 -0.5000000000000 1.0   2.77
Fe     4 -0.0000000000000  0.0000000000000  0.0000000000000 1.0   3.58
END
