TITL LFSO-LiFe3S2O3-200909-190345-c23f5f 0.0018 134.515398 -4.70966003E+003 0.184859 0.634754 9 (P-1) n - 1
REM
REM Run started: Wed, 09 Sep 2020 22:27:33 +0100 in /lustre/scratch/uccabz1/launch_tmp/launcher_2020-09-09-18-03-43-453849
REM CASTEP 20.1 from code version af48c487+ pr-geom-scf-spinfix Tue Jun 2 15:39:59 2020 +0100
REM Functional Perdew Burke Ernzerhof Relativity Koelling-Harmon Dispersion off
REM Cut-off 340.0000 eV Grid scale 1.7500 Gmax 16.5316 1/A FBSC none
REM MP grid 5 3 3 Offset 0.000 0.000 0.000 No. kpts 23 Spacing 0.07
REM Total runtime: 14638.6 s
REM Overall efficiency: 96.7143 %
REM
REM
REM
REM compiler GCC version 4.9.2
REM options -cpp -iprefix /lustre/shared/ucl/apps/gcc/4.9.2/bin/../lib/gcc/x86_64-unknown-linux-gnu/4.9.2/ -mtune=corei7 -march=x86-64 -g -Og
REM COMMAND_LINE
REM seed 521493691 -1009226733 1964681848 2134416265 943690374 -1594710440 -740224765 -947043374 1601847362 519861623 -1829311902 -1547392977
REM
REM S 3|1.8|5|6|7|30:31:32(qc=5)
REM O 2|1.5|12|13|15|20:21(qc=5)
REM Li 1|1.3|8|9|10|10U:20(qc=5)
REM Fe 3|2.2|2.0|1.0|8|9|10|40:41:32(qc=5)
REM 
CELL 1.54180    3.38414    5.65847    7.31927   95.04173  105.50478   87.74512
LATT -1
SFAC Li O  S  Fe 
Li     1 -0.5000000000000  0.5000000000000  0.0000000000000 1.0   0.01
O      2  0.2938650000000 -0.2053180000000  0.0649680000000 1.0   0.01
O      2 -0.2938650000000  0.2053180000000 -0.0649680000000 1.0   0.01
O      2  0.5000000000000 -0.5000000000000 -0.5000000000000 1.0   0.02
S      3  0.0436730000000 -0.1140210000000 -0.3854790000000 1.0  -0.00
S      3 -0.0436730000000  0.1140210000000  0.3854790000000 1.0  -0.00
Fe     4  0.1904040000000  0.0312500000000 -0.1019330000000 1.0   0.13
Fe     4 -0.1904040000000 -0.0312500000000  0.1019330000000 1.0   0.13
Fe     4  0.0000000000000 -0.5000000000000  0.5000000000000 1.0  -0.12
END
