TITL LFSO-Li3Fe3SO5-200927-011117-e6c720 -0.0412 151.192138 -5.68022397E+003 11.1856 11.2934 12 (C2/m) n - 1
REM
REM Run started: Sun, 27 Sep 2020 02:00:58 +0100 in /lustre/scratch/uccabz1/launch_tmp/launcher_2020-09-27-00-11-15-889643
REM CASTEP 20.1 from code version af48c487+ pr-geom-scf-spinfix Tue Jun 2 15:39:59 2020 +0100
REM Functional Perdew Burke Ernzerhof Relativity Koelling-Harmon Dispersion off
REM Cut-off 340.0000 eV Grid scale 1.7500 Gmax 16.5316 1/A FBSC none
REM MP grid 3 3 4 Offset 0.000 0.000 0.000 No. kpts 12 Spacing 0.07
REM Total runtime: 3962.08 s
REM Overall efficiency: 91.6 %
REM
REM
REM
REM compiler GCC version 4.9.2
REM options -cpp -iprefix /lustre/shared/ucl/apps/gcc/4.9.2/bin/../lib/gcc/x86_64-unknown-linux-gnu/4.9.2/ -mtune=corei7 -march=x86-64 -g -Og
REM COMMAND_LINE
REM seed -2142976875 1730115186 -303826197 -1040973686 -61837724 -1814253251 1257467081 -1602805626 1779400123 1598210152 2029779265 591958788
REM
REM S 3|1.8|5|6|7|30:31:32(qc=5)
REM O 2|1.5|12|13|15|20:21(qc=5)
REM Li 1|1.3|8|9|10|10U:20(qc=5)
REM Fe 3|2.2|2.0|1.0|8|9|10|40:41:32(qc=5)
REM 
CELL 1.54180    5.86876    5.86876    5.79673   61.92490   61.92490   87.65557
LATT -1
SFAC Li O  S  Fe 
Li     1 -0.2139360000000 -0.2139360000000  0.0193010000000 1.0  -0.08
Li     1  0.2139360000000  0.2139360000000 -0.0193010000000 1.0  -0.08
Li     1  0.0000000000000  0.0000000000000 -0.5000000000000 1.0  -0.02
O      2  0.1278490000000  0.4245710000000  0.2025990000000 1.0   0.26
O      2 -0.4245710000000 -0.1278490000000 -0.2025990000000 1.0   0.26
O      2 -0.1278490000000 -0.4245710000000 -0.2025990000000 1.0   0.26
O      2  0.4245710000000  0.1278490000000  0.2025990000000 1.0   0.26
O      2  0.0000000000000  0.0000000000000 -0.0000000000000 1.0   0.59
S      3 -0.5000000000000  0.5000000000000  0.5000000000000 1.0   0.17
Fe     4  0.0000000000000 -0.5000000000000  0.5000000000000 1.0   3.43
Fe     4  0.5000000000000  0.0000000000000  0.5000000000000 1.0   3.43
Fe     4 -0.5000000000000  0.5000000000000 -0.0000000000000 1.0   2.69
END
