TITL LFSO-Li2Fe3S2O2-200921-032907-719d0a -0.0363 122.284143 -4.47417789E+003 -0.298568E-05 0.332528E-05 9 (R3) n - 1
REM
REM Run started: Mon, 21 Sep 2020 04:16:58 +0100 in /lustre/scratch/uccabz1/launch_tmp/launcher_2020-09-21-02-29-05-986816
REM CASTEP 20.1 from code version af48c487+ pr-geom-scf-spinfix Tue Jun 2 15:39:59 2020 +0100
REM Functional Perdew Burke Ernzerhof Relativity Koelling-Harmon Dispersion off
REM Cut-off 340.0000 eV Grid scale 1.7500 Gmax 16.5316 1/A FBSC none
REM MP grid 4 4 4 Offset 0.000 0.000 0.000 No. kpts 12 Spacing 0.07
REM Total runtime: 3100.83 s
REM Overall efficiency: 94.6667 %
REM
REM
REM
REM compiler GCC version 4.9.2
REM options -cpp -iprefix /lustre/shared/ucl/apps/gcc/4.9.2/bin/../lib/gcc/x86_64-unknown-linux-gnu/4.9.2/ -mtune=corei7 -march=x86-64 -g -Og
REM COMMAND_LINE
REM seed -952525631 945735481 -1882616200 -1607261601 -753890748 1329723695 1969283353 -545678583 -1661359591 178104144 -8993075 -99233895
REM
REM S 3|1.8|5|6|7|30:31:32(qc=5)
REM O 2|1.5|12|13|15|20:21(qc=5)
REM Li 1|1.3|8|9|10|10U:20(qc=5)
REM Fe 3|2.2|2.0|1.0|8|9|10|40:41:32(qc=5)
REM 
CELL 1.54180    6.64234    6.64234    6.64234   42.73973   42.73973   42.73973
LATT -1
SFAC Li O  S  Fe 
Li     1  0.4993110000000  0.4993110000000  0.4993110000000 1.0
Li     1 -0.0845980000000 -0.0845980000000 -0.0845980000000 1.0
O      2  0.1326300000000  0.1326300000000  0.1326300000000 1.0
O      2 -0.1973880000000 -0.1973880000000 -0.1973880000000 1.0
S      3 -0.3692780000000 -0.3692780000000 -0.3692780000000 1.0
S      3  0.3691360000000  0.3691360000000  0.3691360000000 1.0
Fe     4 -0.0420360000000  0.3996270000000 -0.1599610000000 1.0
Fe     4  0.3996270000000 -0.1599610000000 -0.0420360000000 1.0
Fe     4 -0.1599610000000 -0.0420360000000  0.3996270000000 1.0
END
