TITL LFSO-Li2Fe4S4O-200911-195716-f033f2 0.8850 198.689629 -5.50693784E+003 -1.98696 7.97198 11 (R3) n - 1
REM
REM Run started: Sat, 12 Sep 2020 12:19:35 +0100 in /lustre/scratch/uccabz1/launch_tmp/launcher_2020-09-12-11-03-44-648924
REM CASTEP 20.1 from code version af48c487+ pr-geom-scf-spinfix Tue Jun 2 15:39:59 2020 +0100
REM Functional Perdew Burke Ernzerhof Relativity Koelling-Harmon Dispersion off
REM Cut-off 340.0000 eV Grid scale 1.7500 Gmax 16.5316 1/A FBSC none
REM MP grid 3 3 3 Offset 0.000 0.000 0.000 No. kpts 6 Spacing 0.07
REM Total runtime: 55748.1 s
REM Overall efficiency: 96.9231 %
REM
REM
REM
REM compiler GCC version 4.9.2
REM options -cpp -iprefix /lustre/shared/ucl/apps/gcc/4.9.2/bin/../lib/gcc/x86_64-unknown-linux-gnu/4.9.2/ -mtune=corei7 -march=x86-64 -g -Og
REM COMMAND_LINE
REM seed -1719512671 -226640511 -1145587542 975513345 2033552962 -224130666 -1926468231 1635803101 700567561 -616790468 2094760901 -1622782857
REM
REM S 3|1.8|5|6|7|30:31:32(qc=5)
REM O 2|1.5|12|13|15|20:21(qc=5)
REM Li 1|1.3|8|9|10|10U:20(qc=5)
REM Fe 3|2.2|2.0|1.0|8|9|10|40:41:32(qc=5)
REM 
CELL 1.54180    6.75538    6.75538    6.75538   56.17542   56.17542   56.17542
LATT -1
SFAC Li O  S  Fe 
Li     1 -0.2203140000000 -0.2203140000000 -0.2203140000000 1.0   0.04
Li     1 -0.0455470000000 -0.0455470000000 -0.0455470000000 1.0   0.05
O      2 -0.5672670000000 -0.5672670000000 -0.5672670000000 1.0  -0.03
S      3 -0.2101500000000  0.3687910000000 -0.0413280000000 1.0  -0.02
S      3 -0.0413280000000 -0.2101500000000  0.3687910000000 1.0  -0.02
S      3  0.3687910000000 -0.0413280000000 -0.2101500000000 1.0  -0.02
S      3  0.2483060000000  0.2483060000000  0.2483060000000 1.0  -0.01
Fe     4  0.3663180000000 -0.4017290000000  0.1301940000000 1.0  -1.60
Fe     4  0.1301940000000  0.3663180000000 -0.4017290000000 1.0  -1.60
Fe     4 -0.4017290000000  0.1301940000000  0.3663180000000 1.0  -1.60
Fe     4  0.1169460000000  0.1169460000000  0.1169460000000 1.0   2.82
END
