TITL LFSO-Li5FeS3O-200910-101746-c40f3e 0.0612 357.416921 -6.42655675E+003 7.99955 8.14191 20 (P2) n - 1
REM
REM Run started: Thu, 10 Sep 2020 16:00:49 +0100 in /lustre/scratch/uccabz1/launch_tmp/launcher_2020-09-10-09-17-44-576843
REM CASTEP 20.1 from code version af48c487+ pr-geom-scf-spinfix Tue Jun 2 15:39:59 2020 +0100
REM Functional Perdew Burke Ernzerhof Relativity Koelling-Harmon Dispersion off
REM Cut-off 340.0000 eV Grid scale 1.7500 Gmax 16.5316 1/A FBSC none
REM MP grid 2 3 2 Offset 0.000 0.000 0.000 No. kpts 3 Spacing 0.07
REM Total runtime: 20658.1 s
REM Overall efficiency: 91.2727 %
REM
REM
REM
REM compiler GCC version 4.9.2
REM options -cpp -iprefix /lustre/shared/ucl/apps/gcc/4.9.2/bin/../lib/gcc/x86_64-unknown-linux-gnu/4.9.2/ -mtune=corei7 -march=x86-64 -g -Og
REM COMMAND_LINE
REM seed 292556117 -1727436359 249150179 222023604 -1461477160 774522078 430720138 -1147710292 -1150997443 -801212216 1694420660 775173362
REM
REM S 3|1.8|5|6|7|30:31:32(qc=5)
REM O 2|1.5|12|13|15|20:21(qc=5)
REM Li 1|1.3|8|9|10|10U:20(qc=5)
REM Fe 3|2.2|2.0|1.0|8|9|10|40:41:32(qc=5)
REM 
CELL 1.54180    7.56945    6.59368    7.16382   88.43557   90.00000   90.00000
LATT -1
SFAC Li O  S  Fe 
Li     1  0.0942750000000  0.0153000000000 -0.2514470000000 1.0   0.03
Li     1  0.0942750000000 -0.0153000000000  0.2514470000000 1.0   0.03
Li     1  0.0116850000000  0.4098680000000  0.2168210000000 1.0  -0.02
Li     1  0.0116850000000 -0.4098680000000 -0.2168210000000 1.0  -0.02
Li     1 -0.1846540000000 -0.2057830000000  0.0711500000000 1.0   0.03
Li     1 -0.1846540000000  0.2057830000000 -0.0711500000000 1.0   0.03
Li     1 -0.1629860000000 -0.2078930000000  0.4142520000000 1.0   0.02
Li     1 -0.1629860000000  0.2078930000000 -0.4142520000000 1.0   0.02
Li     1 -0.4604600000000  0.3183260000000  0.1845930000000 1.0   0.03
Li     1 -0.4604600000000 -0.3183260000000 -0.1845930000000 1.0   0.03
O      2  0.0429470000000  0.3055890000000 -0.2438280000000 1.0   0.24
O      2  0.0429470000000 -0.3055890000000  0.2438280000000 1.0   0.24
S      3 -0.1812670000000 -0.1393510000000 -0.2497200000000 1.0   0.02
S      3 -0.1812670000000  0.1393510000000  0.2497200000000 1.0   0.02
S      3  0.5263170000000 -0.3086570000000  0.1959130000000 1.0   0.25
S      3  0.5263170000000  0.3086570000000 -0.1959130000000 1.0   0.25
S      3  0.2785220000000 -0.2693920000000 -0.3661180000000 1.0   0.20
S      3  0.2785220000000  0.2693920000000  0.3661180000000 1.0   0.20
Fe     4  0.2704540000000 -0.3821700000000  0.3357340000000 1.0   3.21
Fe     4  0.2704540000000  0.3821700000000 -0.3357340000000 1.0   3.21
END
