TITL LFSO-Li3Fe3S5O-200929-030845-0c622f -0.0148 425.106301 -1.02962436E+004 -13.7575 14.7380 24 (Pma2) n - 1
REM
REM Run started: Tue, 29 Sep 2020 06:38:03 +0100 in /lustre/scratch/uccabz1/launch_tmp/launcher_2020-09-29-02-08-43-117974
REM CASTEP 20.1 from code version af48c487+ pr-geom-scf-spinfix Tue Jun 2 15:39:59 2020 +0100
REM Functional Perdew Burke Ernzerhof Relativity Koelling-Harmon Dispersion off
REM Cut-off 340.0000 eV Grid scale 1.7500 Gmax 16.5316 1/A FBSC none
REM MP grid 4 2 2 Offset 0.000 0.000 0.000 No. kpts 2 Spacing 0.07
REM Total runtime: 14879 s
REM Overall efficiency: 82.4286 %
REM
REM
REM
REM compiler GCC version 4.9.2
REM options -cpp -iprefix /lustre/shared/ucl/apps/gcc/4.9.2/bin/../lib/gcc/x86_64-unknown-linux-gnu/4.9.2/ -mtune=corei7 -march=x86-64 -g -Og
REM COMMAND_LINE
REM seed 2142243760 -682168872 141904751 769666696 761035261 -130262994 -1480137536 -195713976 249202064 1921202740 -1019290558 -1527131046
REM
REM S 3|1.8|5|6|7|30:31:32(qc=5)
REM O 2|1.5|12|13|15|20:21(qc=5)
REM Li 1|1.3|8|9|10|10U:20(qc=5)
REM Fe 3|2.2|2.0|1.0|8|9|10|40:41:32(qc=5)
REM 
CELL 1.54180    3.63763   10.34809   11.29326   90.00000   90.00000   90.00000
LATT -1
SFAC Li O  S  Fe 
Li     1 -0.1742620000000 -0.0273730000000 -0.3770770000000 1.0   0.01
Li     1  0.1742620000000 -0.0273730000000  0.3770770000000 1.0   0.01
Li     1  0.1742620000000 -0.0273730000000  0.1229230000000 1.0   0.01
Li     1 -0.1742620000000 -0.0273730000000 -0.1229230000000 1.0   0.01
Li     1  0.0000000000000  0.4394860000000 -0.0000000000000 1.0   0.03
Li     1  0.0000000000000  0.4394860000000  0.5000000000000 1.0   0.03
O      2  0.0000000000000 -0.1283940000000 -0.0000000000000 1.0  -0.17
O      2  0.0000000000000 -0.1283940000000  0.5000000000000 1.0  -0.17
S      3 -0.0026870000000  0.2187780000000 -0.1213950000000 1.0  -0.01
S      3  0.0026870000000  0.2187780000000  0.1213950000000 1.0  -0.01
S      3  0.0026870000000  0.2187780000000  0.3786050000000 1.0  -0.01
S      3 -0.0026870000000  0.2187780000000 -0.3786050000000 1.0  -0.01
S      3 -0.2568860000000 -0.3807700000000 -0.1137800000000 1.0   0.00
S      3  0.2568860000000 -0.3807700000000  0.1137800000000 1.0   0.00
S      3  0.2568860000000 -0.3807700000000  0.3862200000000 1.0   0.00
S      3 -0.2568860000000 -0.3807700000000 -0.3862200000000 1.0   0.00
S      3 -0.3136450000000 -0.1349900000000  0.2500000000000 1.0  -0.05
S      3  0.3136450000000 -0.1349900000000 -0.2500000000000 1.0  -0.05
Fe     4  0.2545360000000 -0.2601530000000 -0.4211940000000 1.0  -2.10
Fe     4 -0.2545360000000 -0.2601530000000  0.4211940000000 1.0  -2.10
Fe     4 -0.2545360000000 -0.2601530000000  0.0788060000000 1.0  -2.10
Fe     4  0.2545360000000 -0.2601530000000 -0.0788060000000 1.0  -2.10
Fe     4  0.5000000000000  0.2237140000000 -0.0000000000000 1.0  -2.53
Fe     4 -0.5000000000000  0.2237140000000  0.5000000000000 1.0  -2.53
END
