TITL LFSO-Li2FeSO-200912-013621-93ff8a -0.1543 113.991722 -4.00517162E+003 0.403342E-01 1.17482 10 (P3) n - 1
REM
REM Run started: Sat, 12 Sep 2020 08:13:51 +0100 in /lustre/scratch/uccabz1/launch_tmp/launcher_2020-09-12-00-36-19-815713
REM CASTEP 20.1 from code version af48c487+ pr-geom-scf-spinfix Tue Jun 2 15:39:59 2020 +0100
REM Functional Perdew Burke Ernzerhof Relativity Koelling-Harmon Dispersion off
REM Cut-off 340.0000 eV Grid scale 1.7500 Gmax 16.5316 1/A FBSC none
REM MP grid 5 5 2 Offset 0.000 0.000 0.000 No. kpts 9 Spacing 0.07
REM Total runtime: 26322.6 s
REM Overall efficiency: 96.6154 %
REM
REM
REM
REM compiler GCC version 4.9.2
REM options -cpp -iprefix /lustre/shared/ucl/apps/gcc/4.9.2/bin/../lib/gcc/x86_64-unknown-linux-gnu/4.9.2/ -mtune=corei7 -march=x86-64 -g -Og
REM COMMAND_LINE
REM seed 1392145505 -445395268 1328425420 -1456245451 -907450651 1472419078 -184187513 -472630595 562575994 -1444311711 -1869186328 110851877
REM
REM S 3|1.8|5|6|7|30:31:32(qc=5)
REM O 2|1.5|12|13|15|20:21(qc=5)
REM Li 1|1.3|8|9|10|10U:20(qc=5)
REM Fe 3|2.2|2.0|1.0|8|9|10|40:41:32(qc=5)
REM 
CELL 1.54180    3.88959    3.88959    8.70030   90.00000   90.00000  120.00000
LATT -1
SFAC Li O  S  Fe 
Li     1 -0.4825270000000  0.0066490000000  0.2475680000000 1.0   0.00
Li     1 -0.0066490000000 -0.4891770000000  0.2475680000000 1.0   0.00
Li     1  0.4891770000000  0.4825270000000  0.2475680000000 1.0   0.00
Li     1  0.3333330000000 -0.3333330000000 -0.3688870000000 1.0   0.00
O      2 -0.0000000000000  0.0000000000000  0.2646120000000 1.0   0.00
O      2 -0.3333330000000  0.3333330000000 -0.5554810000000 1.0  -0.00
S      3 -0.0000000000000  0.0000000000000 -0.2522350000000 1.0   0.00
S      3 -0.3333330000000  0.3333330000000  0.0057210000000 1.0   0.00
Fe     4 -0.0000000000000  0.0000000000000  0.4835850000000 1.0  -0.01
Fe     4  0.3333330000000 -0.3333330000000 -0.1083260000000 1.0   0.01
END
