TITL LFSO-Li2Fe4S4O-200911-214440-ee0fde -0.0276 167.330386 -5.50682108E+003 8.84672 9.41741 11 (P3) n - 1
REM
REM Run started: Sat, 12 Sep 2020 05:51:44 +0100 in /lustre/scratch/uccabz1/launch_tmp/launcher_2020-09-11-20-44-38-998833
REM CASTEP 20.1 from code version af48c487+ pr-geom-scf-spinfix Tue Jun 2 15:39:59 2020 +0100
REM Functional Perdew Burke Ernzerhof Relativity Koelling-Harmon Dispersion off
REM Cut-off 340.0000 eV Grid scale 1.7500 Gmax 16.5316 1/A FBSC none
REM MP grid 3 3 3 Offset 0.000 0.000 0.000 No. kpts 8 Spacing 0.07
REM Total runtime: 30961.5 s
REM Overall efficiency: 97.3333 %
REM
REM
REM
REM compiler GCC version 4.9.2
REM options -cpp -iprefix /lustre/shared/ucl/apps/gcc/4.9.2/bin/../lib/gcc/x86_64-unknown-linux-gnu/4.9.2/ -mtune=corei7 -march=x86-64 -g -Og
REM COMMAND_LINE
REM seed 484914339 -2063143411 1727504292 -407032779 1582017804 1079161418 -1180404463 1487803986 1238404116 927243768 -1661731594 -950490834
REM
REM S 3|1.8|5|6|7|30:31:32(qc=5)
REM O 2|1.5|12|13|15|20:21(qc=5)
REM Li 1|1.3|8|9|10|10U:20(qc=5)
REM Fe 3|2.2|2.0|1.0|8|9|10|40:41:32(qc=5)
REM 
CELL 1.54180    5.77983    5.77983    5.78381   90.00000   90.00000  120.00000
LATT -1
SFAC Li O  S  Fe 
Li     1 -0.3333330000000  0.3333330000000  0.2477210000000 1.0  -0.03
Li     1  0.3333330000000 -0.3333330000000  0.1244090000000 1.0   0.02
O      2  0.3333330000000 -0.3333330000000  0.4776990000000 1.0   0.12
S      3  0.3286200000000  0.0314620000000 -0.1031030000000 1.0   0.05
S      3 -0.2971580000000 -0.3286200000000 -0.1031030000000 1.0   0.05
S      3 -0.0314620000000  0.2971580000000 -0.1031030000000 1.0   0.05
S      3 -0.0000000000000  0.0000000000000 -0.6489340000000 1.0   0.03
Fe     4  0.0678940000000 -0.2446210000000 -0.3836300000000 1.0   2.50
Fe     4 -0.3125150000000 -0.0678940000000 -0.3836300000000 1.0   2.50
Fe     4  0.2446210000000  0.3125150000000 -0.3836300000000 1.0   2.50
Fe     4 -0.3333330000000  0.3333330000000 -0.2891180000000 1.0   1.10
END
