TITL LFSO-Li4Fe2S2O3-200911-071818-92a2cc -0.2545 293.995450 -8.89348988E+003 4.68346 12.3676 22 (P3) n - 1
REM
REM Run started: Fri, 11 Sep 2020 23:30:25 +0100 in /lustre/scratch/uccabz1/launch_tmp/launcher_2020-09-11-22-07-58-678239
REM CASTEP 20.1 from code version af48c487+ pr-geom-scf-spinfix Tue Jun 2 15:39:59 2020 +0100
REM Functional Perdew Burke Ernzerhof Relativity Koelling-Harmon Dispersion off
REM Cut-off 340.0000 eV Grid scale 1.7500 Gmax 16.5316 1/A FBSC none
REM MP grid 2 3 3 Offset 0.000 0.000 0.000 No. kpts 5 Spacing 0.07
REM Total runtime: 55074 s
REM Overall efficiency: 88.8333 %
REM
REM
REM
REM compiler GCC version 4.9.2
REM options -cpp -iprefix /lustre/shared/ucl/apps/gcc/4.9.2/bin/../lib/gcc/x86_64-unknown-linux-gnu/4.9.2/ -mtune=corei7 -march=x86-64 -g -Og
REM COMMAND_LINE
REM seed 408630625 -1550429602 -228047626 -1802811365 -1852109935 -2099735014 -1063225237 1797724594 1341259518 -1752484961 1845047700 -771203709
REM
REM S 3|1.8|5|6|7|30:31:32(qc=5)
REM O 2|1.5|12|13|15|20:21(qc=5)
REM Li 1|1.3|8|9|10|10U:20(qc=5)
REM Fe 3|2.2|2.0|1.0|8|9|10|40:41:32(qc=5)
REM 
CELL 1.54180    7.21644    6.85873    6.85873  120.00000   90.00000   90.00000
LATT -1
SFAC Li O  S  Fe 
Li     1  0.3988440000000 -0.3120500000000 -0.0125290000000 1.0  -0.00
Li     1  0.3988440000000  0.0125290000000 -0.2995200000000 1.0  -0.00
Li     1  0.3988440000000  0.2995200000000  0.3120500000000 1.0  -0.00
Li     1 -0.3607640000000 -0.0621840000000  0.2461850000000 1.0  -0.01
Li     1 -0.3607640000000 -0.2461850000000 -0.3083670000000 1.0  -0.01
Li     1 -0.3607640000000  0.3083670000000  0.0621840000000 1.0  -0.01
Li     1 -0.1577330000000 -0.3333340000000  0.3333340000000 1.0   0.02
Li     1  0.2294290000000 -0.3333340000000  0.3333340000000 1.0  -0.05
O      2  0.2515000000000 -0.2413610000000 -0.2620330000000 1.0  -0.04
O      2  0.2515000000000  0.2620330000000  0.0206730000000 1.0  -0.04
O      2  0.2515000000000 -0.0206730000000  0.2413610000000 1.0  -0.04
O      2 -0.3375890000000  0.2287160000000  0.3097270000000 1.0  -0.00
O      2 -0.3375890000000 -0.3097270000000 -0.0810100000000 1.0  -0.00
O      2 -0.3375890000000  0.0810100000000 -0.2287160000000 1.0  -0.00
S      3 -0.1166210000000  0.6561210000000 -0.0248260000000 1.0   0.06
S      3 -0.1166210000000  0.0248260000000 -0.3190520000000 1.0   0.06
S      3 -0.1166210000000  0.3190520000000 -0.6561210000000 1.0   0.06
S      3  0.5309800000000 -0.3333340000000  0.3333340000000 1.0  -0.01
Fe     4  0.0659720000000  0.1268990000000  0.4527000000000 1.0   2.72
Fe     4  0.0659720000000 -0.4527000000000 -0.3258000000000 1.0   2.72
Fe     4  0.0659720000000  0.3258000000000 -0.1268990000000 1.0   2.72
Fe     4  0.1307820000000 -0.0000000000000  0.0000000000000 1.0  -3.46
END
