TITL LFSO-Li6FeSO3-200909-230850-0f710b -0.0885 477.956200 -7.35912137E+003 6.00309 6.54233 22 (Cm) n - 1
REM
REM Run started: Thu, 10 Sep 2020 20:22:08 +0100 in /lustre/scratch/uccabz1/launch_tmp/launcher_2020-09-09-22-08-47-899037
REM CASTEP 20.1 from code version af48c487+ pr-geom-scf-spinfix Tue Jun 2 15:39:59 2020 +0100
REM Functional Perdew Burke Ernzerhof Relativity Koelling-Harmon Dispersion off
REM Cut-off 340.0000 eV Grid scale 1.7500 Gmax 16.5316 1/A FBSC none
REM MP grid 4 3 3 Offset 0.000 0.000 0.000 No. kpts 12 Spacing 0.07
REM Total runtime: 88446 s
REM Overall efficiency: 90.4167 %
REM
REM
REM
REM compiler GCC version 4.9.2
REM options -cpp -iprefix /lustre/shared/ucl/apps/gcc/4.9.2/bin/../lib/gcc/x86_64-unknown-linux-gnu/4.9.2/ -mtune=corei7 -march=x86-64 -g -Og
REM COMMAND_LINE
REM seed 1912338985 -1284075844 -1299165818 -1396738100 -1893821667 643191924 -1186997153 -663081671 -1400125922 -1712257283 -1318682345 1606649128
REM
REM S 3|1.8|5|6|7|30:31:32(qc=5)
REM O 2|1.5|12|13|15|20:21(qc=5)
REM Li 1|1.3|8|9|10|10U:20(qc=5)
REM Fe 3|2.2|2.0|1.0|8|9|10|40:41:32(qc=5)
REM 
CELL 1.54180    9.40367   11.89781   11.89781   66.70178   39.74967   39.74967
LATT -1
SFAC Li O  S  Fe 
Li     1 -0.4169570000000 -0.3204980000000  0.4152480000000 1.0   0.02
Li     1 -0.4169570000000  0.4152480000000 -0.3204980000000 1.0   0.02
Li     1  0.3325880000000  0.3188760000000  0.0779400000000 1.0  -0.01
Li     1  0.3325880000000  0.0779400000000  0.3188760000000 1.0  -0.01
Li     1 -0.4962150000000  0.3096330000000 -0.3826020000000 1.0  -0.01
Li     1 -0.4962150000000 -0.3826020000000  0.3096330000000 1.0  -0.01
Li     1  0.2478700000000  0.1319200000000 -0.3216970000000 1.0  -0.00
Li     1  0.2478700000000 -0.3216970000000  0.1319200000000 1.0  -0.00
Li     1  0.0216590000000 -0.3820330000000  0.0636800000000 1.0  -0.03
Li     1  0.0216590000000  0.0636800000000 -0.3820330000000 1.0  -0.03
Li     1  0.1230840000000 -0.6164830000000 -0.0417520000000 1.0  -0.03
Li     1  0.1230840000000 -0.0417520000000 -0.6164830000000 1.0  -0.03
O      2  0.1323840000000 -0.4413220000000 -0.1683340000000 1.0   0.19
O      2  0.1323840000000 -0.1683340000000 -0.4413220000000 1.0   0.19
O      2  0.3871550000000 -0.2351700000000  0.1735840000000 1.0   0.17
O      2  0.3871550000000  0.1735840000000 -0.2351700000000 1.0   0.17
O      2 -0.0749480000000  0.1805770000000  0.4852360000000 1.0   0.00
O      2 -0.0749480000000  0.4852360000000  0.1805770000000 1.0   0.00
S      3 -0.3498870000000 -0.1356750000000  0.3660890000000 1.0   0.01
S      3 -0.3498870000000  0.3660890000000 -0.1356750000000 1.0   0.01
Fe     4 -0.3012600000000 -0.2539800000000 -0.0381750000000 1.0   2.70
Fe     4 -0.3012600000000 -0.0381750000000 -0.2539800000000 1.0   2.70
END
