TITL LFSO-Li2Fe2SO3-200913-111351-c94a73 0.0513 99.498015 -3.74417803E+003 7.22742 7.26751 8 (Cm) n - 1
REM
REM Run started: Sun, 13 Sep 2020 12:12:44 +0100 in /lustre/scratch/uccabz1/launch_tmp/launcher_2020-09-13-10-13-49-624256
REM CASTEP 20.1 from code version af48c487+ pr-geom-scf-spinfix Tue Jun 2 15:39:59 2020 +0100
REM Functional Perdew Burke Ernzerhof Relativity Koelling-Harmon Dispersion off
REM Cut-off 340.0000 eV Grid scale 1.7500 Gmax 16.5316 1/A FBSC none
REM MP grid 4 4 5 Offset 0.000 0.000 0.000 No. kpts 40 Spacing 0.07
REM Total runtime: 3766.31 s
REM Overall efficiency: 93.8333 %
REM
REM
REM
REM compiler GCC version 4.9.2
REM options -cpp -iprefix /lustre/shared/ucl/apps/gcc/4.9.2/bin/../lib/gcc/x86_64-unknown-linux-gnu/4.9.2/ -mtune=corei7 -march=x86-64 -g -Og
REM COMMAND_LINE
REM seed 650469972 -347009255 837001910 -1626589431 932845408 -139498067 768694019 -1642974278 -1519530353 1940297411 323904125 -1726971965
REM
REM S 3|1.8|5|6|7|30:31:32(qc=5)
REM O 2|1.5|12|13|15|20:21(qc=5)
REM Li 1|1.3|8|9|10|10U:20(qc=5)
REM Fe 3|2.2|2.0|1.0|8|9|10|40:41:32(qc=5)
REM 
CELL 1.54180    6.22994    6.22994    4.33098  108.85231  115.65636  118.31807
LATT -1
SFAC Li O  S  Fe 
Li     1  0.4703940000000 -0.2790410000000 -0.3998280000000 1.0   0.01
Li     1 -0.1207860000000  0.1297790000000 -0.3998280000000 1.0   0.01
O      2  0.3191440000000  0.3119660000000  0.1515440000000 1.0   0.34
O      2 -0.1604230000000 -0.1676010000000  0.1515440000000 1.0   0.34
O      2 -0.4255450000000  0.1020700000000 -0.3234750000000 1.0   0.23
S      3  0.0908520000000 -0.3797910000000 -0.2889390000000 1.0   0.30
Fe     4  0.2579200000000  0.0306500000000 -0.2945830000000 1.0   3.00
Fe     4 -0.3252330000000  0.4474970000000 -0.2945830000000 1.0   3.00
END
