TITL LFSO-Li2Fe4S2O3-200912-132533-0c0c85 0.0065 344.129687 -1.15497260E+004 25.7998 26.2646 22 (Ccc2) n - 1
REM
REM Run started: Sat, 12 Sep 2020 23:56:52 +0100 in /lustre/scratch/uccabz1/launch_tmp/launcher_2020-09-12-12-25-31-465879
REM CASTEP 20.1 from code version af48c487+ pr-geom-scf-spinfix Tue Jun 2 15:39:59 2020 +0100
REM Functional Perdew Burke Ernzerhof Relativity Koelling-Harmon Dispersion off
REM Cut-off 340.0000 eV Grid scale 1.7500 Gmax 16.5316 1/A FBSC none
REM MP grid 4 3 2 Offset 0.000 0.000 0.000 No. kpts 6 Spacing 0.07
REM Total runtime: 39873.7 s
REM Overall efficiency: 98.2222 %
REM
REM
REM
REM compiler GCC version 4.9.2
REM options -cpp -iprefix /lustre/shared/ucl/apps/gcc/4.9.2/bin/../lib/gcc/x86_64-unknown-linux-gnu/4.9.2/ -mtune=corei7 -march=x86-64 -g -Og
REM COMMAND_LINE
REM seed -895703759 -1903692755 -896054983 -1729156444 781866492 1415967296 -1031074705 -1044827919 1440672099 -100074726 2004271382 -335036819
REM
REM S 3|1.8|5|6|7|30:31:32(qc=5)
REM O 2|1.5|12|13|15|20:21(qc=5)
REM Li 1|1.3|8|9|10|10U:20(qc=5)
REM Fe 3|2.2|2.0|1.0|8|9|10|40:41:32(qc=5)
REM 
CELL 1.54180    3.85480    6.94151   13.38715   90.00000   90.00000  106.12080
LATT -1
SFAC Li O  S  Fe 
Li     1 -0.2309500000000 -0.3126930000000  0.4242820000000 1.0  -0.00
Li     1  0.2309500000000  0.3126930000000  0.4242820000000 1.0  -0.00
Li     1 -0.0817430000000 -0.3126930000000 -0.0757180000000 1.0  -0.00
Li     1  0.0817430000000  0.3126930000000 -0.0757180000000 1.0  -0.00
O      2  0.0042580000000  0.2297560000000 -0.2201280000000 1.0   0.31
O      2 -0.0042580000000 -0.2297560000000 -0.2201280000000 1.0   0.31
O      2  0.2254970000000  0.2297560000000  0.2798720000000 1.0   0.31
O      2 -0.2254970000000 -0.2297560000000  0.2798720000000 1.0   0.31
O      2  0.5000000000000 -0.5000000000000 -0.1195460000000 1.0   0.34
O      2  0.0000000000000  0.5000000000000  0.3804540000000 1.0   0.34
S      3  0.3345420000000 -0.2836210000000  0.0832250000000 1.0   0.11
S      3 -0.3345420000000  0.2836210000000  0.0832250000000 1.0   0.11
S      3  0.3818370000000 -0.2836210000000 -0.4167750000000 1.0   0.11
S      3 -0.3818370000000  0.2836210000000 -0.4167750000000 1.0   0.11
Fe     4  0.1756740000000  0.3884020000000 -0.3436060000000 1.0   2.37
Fe     4 -0.1756740000000 -0.3884020000000 -0.3436060000000 1.0   2.37
Fe     4  0.2127280000000  0.3884020000000  0.1563940000000 1.0   2.37
Fe     4 -0.2127280000000 -0.3884020000000  0.1563940000000 1.0   2.37
Fe     4  0.2516930000000 -0.3103520000000  0.2781490000000 1.0   3.50
Fe     4 -0.2516930000000  0.3103520000000  0.2781490000000 1.0   3.50
Fe     4  0.4379550000000 -0.3103520000000 -0.2218510000000 1.0   3.50
Fe     4 -0.4379550000000  0.3103520000000 -0.2218510000000 1.0   3.50
END
