TITL LFSO-Li4FeSO2-200910-083506-67e69e 0.0026 119.853182 -2.83996090E+003 4.00000 4.02357 8 (P3) n - 1
REM
REM Run started: Thu, 10 Sep 2020 10:00:18 +0100 in /lustre/scratch/uccabz1/launch_tmp/launcher_2020-09-10-07-35-04-497438
REM CASTEP 20.1 from code version af48c487+ pr-geom-scf-spinfix Tue Jun 2 15:39:59 2020 +0100
REM Functional Perdew Burke Ernzerhof Relativity Koelling-Harmon Dispersion off
REM Cut-off 340.0000 eV Grid scale 1.7500 Gmax 16.5316 1/A FBSC none
REM MP grid 4 4 2 Offset 0.000 0.000 0.000 No. kpts 16 Spacing 0.07
REM Total runtime: 5215.23 s
REM Overall efficiency: 94 %
REM
REM
REM
REM compiler GCC version 4.9.2
REM options -cpp -iprefix /lustre/shared/ucl/apps/gcc/4.9.2/bin/../lib/gcc/x86_64-unknown-linux-gnu/4.9.2/ -mtune=corei7 -march=x86-64 -g -Og
REM COMMAND_LINE
REM seed -643133095 -1076807490 978085928 403749495 156338515 1158587941 1310669526 -1135922074 1011021356 -1915955448 527306918 369668847
REM
REM S 3|1.8|5|6|7|30:31:32(qc=5)
REM O 2|1.5|12|13|15|20:21(qc=5)
REM Li 1|1.3|8|9|10|10U:20(qc=5)
REM Fe 3|2.2|2.0|1.0|8|9|10|40:41:32(qc=5)
REM 
CELL 1.54180    4.12689    4.12689    8.12593   90.00000   90.00000  120.00000
LATT -1
SFAC Li O  S  Fe 
Li     1 -0.0078860000000  0.3251480000000 -0.2174570000000 1.0   0.00
Li     1  0.3330350000000  0.0078860000000 -0.2174570000000 1.0   0.00
Li     1 -0.3251480000000 -0.3330350000000 -0.2174570000000 1.0   0.00
Li     1  0.3333330000000 -0.3333330000000 -0.5807740000000 1.0  -0.05
O      2 -0.3333330000000  0.3333330000000  0.6522280000000 1.0   0.01
O      2  0.0000000000000 -0.0000000000000 -0.0812800000000 1.0   0.17
S      3 -0.3333330000000  0.3333330000000  0.2333290000000 1.0   0.23
Fe     4  0.0000000000000 -0.0000000000000  0.1518780000000 1.0   3.63
END
