TITL LFSO-Li4Fe2S3O-200911-005905-99f6c7 -0.0245 157.392663 -3.87289599E+003 6.17864 6.81401 10 (Pm) n - 1
REM
REM Run started: Fri, 11 Sep 2020 01:52:17 +0100 in /lustre/scratch/uccabz1/launch_tmp/launcher_2020-09-10-23-59-02-679868
REM CASTEP 20.1 from code version af48c487+ pr-geom-scf-spinfix Tue Jun 2 15:39:59 2020 +0100
REM Functional Perdew Burke Ernzerhof Relativity Koelling-Harmon Dispersion off
REM Cut-off 340.0000 eV Grid scale 1.7500 Gmax 16.5316 1/A FBSC none
REM MP grid 5 3 2 Offset 0.000 0.000 0.000 No. kpts 10 Spacing 0.07
REM Total runtime: 3225.63 s
REM Overall efficiency: 77.5714 %
REM
REM
REM
REM compiler GCC version 4.9.2
REM options -cpp -iprefix /lustre/shared/ucl/apps/gcc/4.9.2/bin/../lib/gcc/x86_64-unknown-linux-gnu/4.9.2/ -mtune=corei7 -march=x86-64 -g -Og
REM COMMAND_LINE
REM seed -1023183512 -952524289 -682702179 689268919 -1736569356 1301004979 676834626 1475645579 1979899967 -1266972920 1117253826 -54814459
REM
REM S 3|1.8|5|6|7|30:31:32(qc=5)
REM O 2|1.5|12|13|15|20:21(qc=5)
REM Li 1|1.3|8|9|10|10U:20(qc=5)
REM Fe 3|2.2|2.0|1.0|8|9|10|40:41:32(qc=5)
REM 
CELL 1.54180    3.21578    5.24046    9.37120   90.00000   94.70570   90.00000
LATT -1
SFAC Li O  S  Fe 
Li     1 -0.3642130000000 -0.2628730000000 -0.2684840000000 1.0  -0.04
Li     1 -0.3642130000000  0.2628730000000 -0.2684840000000 1.0  -0.04
Li     1  0.1947580000000  0.2774860000000  0.2886970000000 1.0  -0.07
Li     1  0.1947580000000 -0.2774860000000  0.2886970000000 1.0  -0.07
O      2 -0.2532480000000 -0.5000000000000  0.1897160000000 1.0   0.20
S      3 -0.2583690000000  0.1982330000000 -0.5073640000000 1.0   0.00
S      3 -0.2583690000000 -0.1982330000000 -0.5073640000000 1.0   0.00
S      3  0.1680910000000  0.5000000000000 -0.1193840000000 1.0   0.14
Fe     4 -0.3063890000000  0.2486120000000  0.0331730000000 1.0   3.02
Fe     4 -0.3063890000000 -0.2486120000000  0.0331730000000 1.0   3.02
END
