TITL LFSO-LiFe3S3O2-200909-140106-a6d0b1 0.1869 139.223128 -4.57838996E+003 -3.82137 8.91192 9 (Cm) n - 1
REM
REM Run started: Wed, 09 Sep 2020 20:22:05 +0100 in /lustre/scratch/uccabz1/launch_tmp/launcher_2020-09-09-13-01-04-222680
REM CASTEP 20.1 from code version af48c487+ pr-geom-scf-spinfix Tue Jun 2 15:39:59 2020 +0100
REM Functional Perdew Burke Ernzerhof Relativity Koelling-Harmon Dispersion off
REM Cut-off 340.0000 eV Grid scale 1.7500 Gmax 16.5316 1/A FBSC none
REM MP grid 4 4 3 Offset 0.000 0.000 0.000 No. kpts 16 Spacing 0.07
REM Total runtime: 24291.1 s
REM Overall efficiency: 96.5833 %
REM
REM
REM
REM compiler GCC version 4.9.2
REM options -cpp -iprefix /lustre/shared/ucl/apps/gcc/4.9.2/bin/../lib/gcc/x86_64-unknown-linux-gnu/4.9.2/ -mtune=corei7 -march=x86-64 -g -Og
REM COMMAND_LINE
REM seed -1724401954 1045403890 -893987288 -539412346 34090820 1814963205 430201815 350864485 -680464253 106961569 191478387 843234869
REM
REM S 3|1.8|5|6|7|30:31:32(qc=5)
REM O 2|1.5|12|13|15|20:21(qc=5)
REM Li 1|1.3|8|9|10|10U:20(qc=5)
REM Fe 3|2.2|2.0|1.0|8|9|10|40:41:32(qc=5)
REM 
CELL 1.54180    5.29383    5.29383    5.73422  102.14550  102.14550  111.05635
LATT -1
SFAC Li O  S  Fe 
Li     1  0.2996280000000  0.2996280000000 -0.1000010000000 1.0  -0.00
O      2  0.0090630000000  0.3093870000000 -0.3880030000000 1.0  -0.14
O      2  0.3093870000000  0.0090630000000 -0.3880030000000 1.0  -0.14
S      3 -0.2053510000000  0.1501060000000  0.0617240000000 1.0  -0.06
S      3  0.1501060000000 -0.2053510000000  0.0617240000000 1.0  -0.06
S      3 -0.3645950000000 -0.3645950000000  0.3753440000000 1.0  -0.06
Fe     4  0.0328120000000 -0.3120410000000 -0.3472020000000 1.0  -2.90
Fe     4 -0.3120410000000  0.0328120000000 -0.3472020000000 1.0  -2.90
Fe     4  0.0051170000000  0.0051170000000  0.3375590000000 1.0   2.44
END
