TITL LFSO-Li6FeS3O-200910-013520-0efc75 -0.4768 337.273162 -6.82550959E+003 7.99982 8.05154 22 (Cc) n - 1
REM
REM Run started: Thu, 10 Sep 2020 11:20:13 +0100 in /lustre/scratch/uccabz1/launch_tmp/launcher_2020-09-10-09-44-10-862479
REM CASTEP 20.1 from code version af48c487+ pr-geom-scf-spinfix Tue Jun 2 15:39:59 2020 +0100
REM Functional Perdew Burke Ernzerhof Relativity Koelling-Harmon Dispersion off
REM Cut-off 340.0000 eV Grid scale 1.7500 Gmax 16.5316 1/A FBSC none
REM MP grid 3 3 3 Offset 0.000 0.000 0.000 No. kpts 10 Spacing 0.07
REM Total runtime: 34888.2 s
REM Overall efficiency: 69.3636 %
REM
REM
REM
REM compiler GCC version 4.9.2
REM options -cpp -iprefix /lustre/shared/ucl/apps/gcc/4.9.2/bin/../lib/gcc/x86_64-unknown-linux-gnu/4.9.2/ -mtune=corei7 -march=x86-64 -g -Og
REM COMMAND_LINE
REM seed 561960811 401340735 415931734 861261375 -2014171102 1721378003 1206257358 -572102080 2001026032 -1793023838 505334149 2043681608
REM
REM S 3|1.8|5|6|7|30:31:32(qc=5)
REM O 2|1.5|12|13|15|20:21(qc=5)
REM Li 1|1.3|8|9|10|10U:20(qc=5)
REM Fe 3|2.2|2.0|1.0|8|9|10|40:41:32(qc=5)
REM 
CELL 1.54180    7.67719    7.67719    7.59647  108.43060  108.43060  113.11747
LATT -1
SFAC Li O  S  Fe 
Li     1  0.4245530000000  0.1441470000000 -0.1780430000000 1.0   0.07
Li     1  0.6441470000000 -0.0754470000000  0.3219570000000 1.0   0.07
Li     1 -0.4105900000000  0.2836180000000  0.2664440000000 1.0  -0.01
Li     1 -0.2163820000000  0.0894100000000 -0.2335560000000 1.0  -0.01
Li     1  0.0510440000000 -0.0083670000000 -0.0080730000000 1.0  -0.01
Li     1  0.4916330000000 -0.4489560000000  0.4919270000000 1.0  -0.01
Li     1  0.3235460000000  0.4206050000000  0.0670680000000 1.0  -0.02
Li     1 -0.0793950000000 -0.1764540000000 -0.4329320000000 1.0  -0.02
Li     1  0.3144200000000  0.1268100000000  0.3767770000000 1.0   0.03
Li     1  0.6268100000000 -0.1855800000000 -0.1232230000000 1.0   0.03
Li     1 -0.2520730000000 -0.4929130000000 -0.1266120000000 1.0  -0.02
Li     1  0.0070870000000  0.2479270000000  0.3733880000000 1.0  -0.02
O      2  0.3353980000000  0.2739670000000  0.2149220000000 1.0   0.01
O      2 -0.2260330000000 -0.1646020000000 -0.2850780000000 1.0   0.01
S      3  0.3467300000000  0.3825050000000 -0.2780280000000 1.0   0.12
S      3 -0.1174950000000 -0.1532700000000  0.2219720000000 1.0   0.12
S      3 -0.2270560000000  0.2786030000000 -0.4206820000000 1.0   0.12
S      3 -0.2213970000000  0.2729440000000  0.0793180000000 1.0   0.12
S      3  0.2685430000000 -0.2758370000000  0.1419630000000 1.0   0.23
S      3  0.2241630000000 -0.2314570000000 -0.3580370000000 1.0   0.23
Fe     4  0.1465440000000 -0.4567570000000 -0.2173200000000 1.0   3.47
Fe     4  0.0432430000000 -0.3534560000000  0.2826800000000 1.0   3.47
END
