TITL LFSO-Li4Fe2S2O3-200911-093118-7d8bde -0.0600 229.618397 -4.44797048E+003 8.22602 8.35223 11 (Pm) n - 1
REM
REM Run started: Fri, 11 Sep 2020 12:44:19 +0100 in /lustre/scratch/uccabz1/launch_tmp/launcher_2020-09-11-08-31-16-427088
REM CASTEP 20.1 from code version af48c487+ pr-geom-scf-spinfix Tue Jun 2 15:39:59 2020 +0100
REM Functional Perdew Burke Ernzerhof Relativity Koelling-Harmon Dispersion off
REM Cut-off 340.0000 eV Grid scale 1.7500 Gmax 16.5316 1/A FBSC none
REM MP grid 6 2 3 Offset 0.000 0.000 0.000 No. kpts 9 Spacing 0.07
REM Total runtime: 11414.6 s
REM Overall efficiency: 93.4 %
REM
REM
REM
REM compiler GCC version 4.9.2
REM options -cpp -iprefix /lustre/shared/ucl/apps/gcc/4.9.2/bin/../lib/gcc/x86_64-unknown-linux-gnu/4.9.2/ -mtune=corei7 -march=x86-64 -g -Og
REM COMMAND_LINE
REM seed -310195877 303916093 1077432201 -730599297 227831587 -4015221 -1874777277 -65553791 -891231911 -1431403046 1584624029 -1822285984
REM
REM S 3|1.8|5|6|7|30:31:32(qc=5)
REM O 2|1.5|12|13|15|20:21(qc=5)
REM Li 1|1.3|8|9|10|10U:20(qc=5)
REM Fe 3|2.2|2.0|1.0|8|9|10|40:41:32(qc=5)
REM 
CELL 1.54180    3.13213   11.47520    7.29755   90.00000  118.90219   90.00000
LATT -1
SFAC Li O  S  Fe 
Li     1  0.2267430000000 -0.3125580000000 -0.2343550000000 1.0   0.04
Li     1  0.2267430000000  0.3125580000000 -0.2343550000000 1.0   0.04
Li     1  0.0194550000000 -0.2060780000000  0.1203950000000 1.0   0.00
Li     1  0.0194550000000  0.2060780000000  0.1203950000000 1.0   0.00
O      2 -0.5780120000000 -0.2751640000000  0.0337980000000 1.0   0.33
O      2 -0.5780120000000  0.2751640000000  0.0337980000000 1.0   0.33
O      2  0.1077820000000  0.5000000000000  0.2024660000000 1.0   0.34
S      3  0.4112710000000  0.2920020000000 -0.5242430000000 1.0   0.09
S      3  0.4112710000000 -0.2920020000000 -0.5242430000000 1.0   0.09
Fe     4 -0.3366120000000 -0.3843600000000  0.2522610000000 1.0   3.47
Fe     4 -0.3366120000000  0.3843600000000  0.2522610000000 1.0   3.47
END
