TITL LFSO-Li5FeS2O2-200921-004853-050ecd 0.0670 158.536255 -3.33964127E+003 3.44439 3.94909 10 (P3) n - 1
REM
REM Run started: Mon, 21 Sep 2020 01:48:33 +0100 in /lustre/scratch/uccabz1/launch_tmp/launcher_2020-09-20-23-48-51-910033
REM CASTEP 20.1 from code version af48c487+ pr-geom-scf-spinfix Tue Jun 2 15:39:59 2020 +0100
REM Functional Perdew Burke Ernzerhof Relativity Koelling-Harmon Dispersion off
REM Cut-off 340.0000 eV Grid scale 1.7500 Gmax 16.5316 1/A FBSC none
REM MP grid 4 4 2 Offset 0.000 0.000 0.000 No. kpts 16 Spacing 0.07
REM Total runtime: 3855.85 s
REM Overall efficiency: 94.5714 %
REM
REM
REM
REM compiler GCC version 4.9.2
REM options -cpp -iprefix /lustre/shared/ucl/apps/gcc/4.9.2/bin/../lib/gcc/x86_64-unknown-linux-gnu/4.9.2/ -mtune=corei7 -march=x86-64 -g -Og
REM COMMAND_LINE
REM seed 78259630 -889933236 355606391 -1699136004 -1489962204 -492557885 -139914526 -745360531 -1002389327 1242262209 -526900136 23704939
REM
REM S 3|1.8|5|6|7|30:31:32(qc=5)
REM O 2|1.5|12|13|15|20:21(qc=5)
REM Li 1|1.3|8|9|10|10U:20(qc=5)
REM Fe 3|2.2|2.0|1.0|8|9|10|40:41:32(qc=5)
REM 
CELL 1.54180    4.18090    4.18090   10.47269   90.00000   90.00000  120.00000
LATT -1
SFAC Li O  S  Fe 
Li     1  0.3294070000000 -0.0302900000000 -0.4560300000000 1.0  -0.10
Li     1  0.0302900000000  0.3596970000000 -0.4560300000000 1.0  -0.10
Li     1 -0.3596970000000 -0.3294070000000 -0.4560300000000 1.0  -0.10
Li     1  0.0000000000000 -0.0000000000000 -0.1606660000000 1.0  -0.00
Li     1  0.0000000000000 -0.0000000000000  0.1756460000000 1.0  -0.02
O      2  0.3333330000000 -0.3333330000000  0.4096810000000 1.0   0.06
O      2 -0.3333330000000  0.3333330000000 -0.0121990000000 1.0   0.21
S      3  0.3333330000000 -0.3333330000000 -0.2792560000000 1.0  -0.00
S      3 -0.3333330000000  0.3333330000000  0.1419230000000 1.0   0.30
Fe     4 -0.3333330000000  0.3333330000000  0.3451080000000 1.0   3.19
END
