TITL LFSO-Li3FeS2O-200911-183714-edff2c 0.1557 352.069034 -7.52633662E+003 12.9506 13.0655 21 (C2) n - 1
REM
REM Run started: Sat, 12 Sep 2020 07:18:51 +0100 in /lustre/scratch/uccabz1/launch_tmp/launcher_2020-09-11-22-11-40-867414
REM CASTEP 20.1 from code version af48c487+ pr-geom-scf-spinfix Tue Jun 2 15:39:59 2020 +0100
REM Functional Perdew Burke Ernzerhof Relativity Koelling-Harmon Dispersion off
REM Cut-off 340.0000 eV Grid scale 1.7500 Gmax 16.5316 1/A FBSC none
REM MP grid 3 2 2 Offset 0.000 0.000 0.000 No. kpts 5 Spacing 0.07
REM Total runtime: 40264.4 s
REM Overall efficiency: 74.2308 %
REM
REM
REM
REM compiler GCC version 4.9.2
REM options -cpp -iprefix /lustre/shared/ucl/apps/gcc/4.9.2/bin/../lib/gcc/x86_64-unknown-linux-gnu/4.9.2/ -mtune=corei7 -march=x86-64 -g -Og
REM COMMAND_LINE
REM seed 899480407 -703147122 1303507237 -377266650 1352658157 449586110 320928447 1482168640 -51882322 1629791552 1745059569 392570958
REM
REM S 3|1.8|5|6|7|30:31:32(qc=5)
REM O 2|1.5|12|13|15|20:21(qc=5)
REM Li 1|1.3|8|9|10|10U:20(qc=5)
REM Fe 3|2.2|2.0|1.0|8|9|10|40:41:32(qc=5)
REM 
CELL 1.54180    7.56100    7.11712    7.11712   91.39463   74.06812   74.06812
LATT -1
SFAC Li O  S  Fe 
Li     1  0.0158170000000  0.2497850000000  0.1799190000000 1.0   0.08
Li     1 -0.0158170000000 -0.1799190000000 -0.2497850000000 1.0   0.08
Li     1 -0.1391650000000  0.6884560000000  0.1526500000000 1.0  -0.01
Li     1  0.1391650000000 -0.1526500000000 -0.6884560000000 1.0  -0.01
Li     1  0.3003860000000 -0.6226980000000 -0.1795640000000 1.0   0.02
Li     1 -0.3003860000000  0.1795640000000  0.6226980000000 1.0   0.02
Li     1 -0.3837920000000  0.1078850000000  0.0301100000000 1.0   0.00
Li     1  0.3837920000000 -0.0301100000000 -0.1078850000000 1.0   0.00
Li     1  0.0000000000000  0.3602850000000 -0.3602850000000 1.0   0.11
O      2  0.2903800000000  0.2250200000000  0.0479720000000 1.0   0.29
O      2 -0.2903800000000 -0.0479720000000 -0.2250200000000 1.0   0.29
O      2  0.5000000000000  0.3761920000000 -0.3761920000000 1.0   0.45
S      3  0.1849440000000  0.5582560000000  0.4835940000000 1.0   0.16
S      3 -0.1849440000000 -0.4835940000000 -0.5582560000000 1.0   0.16
S      3  0.3658180000000 -0.0924990000000 -0.4595750000000 1.0   0.37
S      3 -0.3658180000000  0.4595750000000  0.0924990000000 1.0   0.37
S      3  0.1863350000000 -0.2979470000000 -0.0115220000000 1.0   0.33
S      3 -0.1863350000000  0.0115220000000  0.2979470000000 1.0   0.33
Fe     4 -0.3207250000000 -0.1560340000000  0.5432260000000 1.0   3.58
Fe     4  0.3207250000000 -0.5432260000000  0.1560340000000 1.0   3.58
Fe     4 -0.5000000000000 -0.4556060000000  0.4556060000000 1.0   2.73
END
