TITL LFSO-Li4Fe2S4O-200910-210455-9d131d -0.0594 398.917968 -8.35973381E+003 -13.7556 14.2186 22 (R3) n - 1
REM
REM Run started: Fri, 11 Sep 2020 06:35:30 +0100 in /lustre/scratch/uccabz1/launch_tmp/launcher_2020-09-10-20-04-53-632218
REM CASTEP 20.1 from code version af48c487+ pr-geom-scf-spinfix Tue Jun 2 15:39:59 2020 +0100
REM Functional Perdew Burke Ernzerhof Relativity Koelling-Harmon Dispersion off
REM Cut-off 340.0000 eV Grid scale 1.7500 Gmax 16.5316 1/A FBSC none
REM MP grid 2 2 2 Offset 0.000 0.000 0.000 No. kpts 2 Spacing 0.07
REM Total runtime: 37443.3 s
REM Overall efficiency: 81.5 %
REM
REM
REM
REM compiler GCC version 4.9.2
REM options -cpp -iprefix /lustre/shared/ucl/apps/gcc/4.9.2/bin/../lib/gcc/x86_64-unknown-linux-gnu/4.9.2/ -mtune=corei7 -march=x86-64 -g -Og
REM COMMAND_LINE
REM seed -1518686955 -71457631 1783968706 777756665 226914876 -1504757315 601842693 -2044960699 1329498548 -1199683161 -255936122 2128495896
REM
REM S 3|1.8|5|6|7|30:31:32(qc=5)
REM O 2|1.5|12|13|15|20:21(qc=5)
REM Li 1|1.3|8|9|10|10U:20(qc=5)
REM Fe 3|2.2|2.0|1.0|8|9|10|40:41:32(qc=5)
REM 
CELL 1.54180    7.48725    7.48725    7.48725   78.91415   78.91415   78.91415
LATT -1
SFAC Li O  S  Fe 
Li     1  0.2170340000000 -0.6444200000000 -0.3789620000000 1.0  -0.01
Li     1 -0.6444200000000 -0.3789620000000  0.2170340000000 1.0  -0.01
Li     1 -0.3789620000000  0.2170340000000 -0.6444200000000 1.0  -0.01
Li     1  0.5983790000000  0.3912720000000 -0.1064350000000 1.0  -0.02
Li     1  0.3912720000000 -0.1064350000000  0.5983790000000 1.0  -0.02
Li     1 -0.1064350000000  0.5983790000000  0.3912720000000 1.0  -0.02
Li     1 -0.1768040000000 -0.1768040000000 -0.1768040000000 1.0  -0.04
Li     1  0.2886060000000  0.2886060000000  0.2886060000000 1.0   0.07
O      2 -0.0546080000000 -0.0546080000000 -0.0546080000000 1.0   0.04
O      2  0.4017020000000  0.4017020000000  0.4017020000000 1.0  -0.30
S      3  0.5029540000000  0.1346560000000 -0.2662010000000 1.0  -0.29
S      3  0.1346560000000 -0.2662010000000  0.5029540000000 1.0  -0.29
S      3 -0.2662010000000  0.5029540000000  0.1346560000000 1.0  -0.29
S      3 -0.5416600000000 -0.0013400000000  0.2342700000000 1.0  -0.32
S      3 -0.0013400000000  0.2342700000000 -0.5416600000000 1.0  -0.32
S      3  0.2342700000000 -0.5416600000000 -0.0013400000000 1.0  -0.32
S      3 -0.3409050000000 -0.3409050000000 -0.3409050000000 1.0  -0.22
S      3  0.0462010000000  0.0462010000000  0.0462010000000 1.0   0.07
Fe     4 -0.6903570000000  0.1460270000000 -0.0073750000000 1.0  -2.63
Fe     4  0.1460270000000 -0.0073750000000 -0.6903570000000 1.0  -2.63
Fe     4 -0.0073750000000 -0.6903570000000  0.1460270000000 1.0  -2.63
Fe     4 -0.4817910000000 -0.4817910000000 -0.4817910000000 1.0  -3.60
END
