TITL LFSO-Li2Fe4S3O2-200912-061722-708df0 -0.0986 404.656036 -1.12832292E+004 -0.381290 20.2487 22 (Cc) n - 1
REM
REM Run started: Mon, 14 Sep 2020 04:58:48 +0100 in /lustre/scratch/uccabz1/launch_tmp/launcher_2020-09-13-17-12-07-465315
REM CASTEP 20.1 from code version af48c487+ pr-geom-scf-spinfix Tue Jun 2 15:39:59 2020 +0100
REM Functional Perdew Burke Ernzerhof Relativity Koelling-Harmon Dispersion off
REM Cut-off 340.0000 eV Grid scale 1.7500 Gmax 16.5316 1/A FBSC none
REM MP grid 4 2 2 Offset 0.000 0.000 0.000 No. kpts 8 Spacing 0.07
REM Total runtime: 173800 s
REM Overall efficiency: 96.3636 %
REM
REM
REM
REM compiler GCC version 4.9.2
REM options -cpp -iprefix /lustre/shared/ucl/apps/gcc/4.9.2/bin/../lib/gcc/x86_64-unknown-linux-gnu/4.9.2/ -mtune=corei7 -march=x86-64 -g -Og
REM COMMAND_LINE
REM seed -609477991 -1607988207 1434330068 -1747482686 -697571672 972549100 1189492119 -671299515 -1623117359 -771951819 -1596807181 344943357
REM
REM S 3|1.8|5|6|7|30:31:32(qc=5)
REM O 2|1.5|12|13|15|20:21(qc=5)
REM Li 1|1.3|8|9|10|10U:20(qc=5)
REM Fe 3|2.2|2.0|1.0|8|9|10|40:41:32(qc=5)
REM 
CELL 1.54180    5.31756   12.27770    9.53962   49.94596   70.11023   58.08360
LATT -1
SFAC Li O  S  Fe 
Li     1  0.2618860000000  0.3158710000000  0.0808730000000 1.0   0.01
Li     1 -0.2381140000000  0.3967440000000 -0.0808730000000 1.0   0.01
Li     1 -0.0528370000000 -0.2470730000000 -0.3359880000000 1.0   0.04
Li     1 -0.5528370000000  0.4169390000000  0.3359880000000 1.0   0.04
O      2  0.2407280000000 -0.4553650000000  0.4232130000000 1.0  -0.02
O      2 -0.2592720000000 -0.0321530000000 -0.4232130000000 1.0  -0.02
O      2  0.0762620000000  0.4427490000000 -0.1380210000000 1.0  -0.29
O      2 -0.4237380000000  0.3047280000000  0.1380210000000 1.0  -0.29
S      3 -0.5279470000000 -0.0859900000000  0.1704450000000 1.0  -0.06
S      3 -0.0279470000000  0.0844550000000 -0.1704450000000 1.0  -0.06
S      3  0.1521610000000 -0.2640240000000 -0.1110780000000 1.0   0.01
S      3  0.6521610000000 -0.3751020000000  0.1110780000000 1.0   0.01
S      3  0.0131570000000  0.2058940000000  0.4106280000000 1.0  -0.05
S      3 -0.4868430000000 -0.3834780000000 -0.4106280000000 1.0  -0.05
Fe     4  0.2417920000000 -0.1665100000000 -0.0229460000000 1.0  -1.73
Fe     4 -0.2582080000000 -0.1894560000000  0.0229460000000 1.0  -1.73
Fe     4 -0.0680500000000 -0.0047600000000 -0.3029160000000 1.0   2.03
Fe     4  0.4319500000000 -0.3076760000000  0.3029160000000 1.0   2.03
Fe     4  0.3418050000000  0.0514360000000 -0.3605390000000 1.0   2.84
Fe     4 -0.1581950000000 -0.3091020000000  0.3605390000000 1.0   2.84
Fe     4 -0.2699810000000  0.1545540000000  0.3572300000000 1.0  -2.97
Fe     4  0.2300190000000 -0.4882160000000 -0.3572300000000 1.0  -2.97
END
