TITL LFSO-Li2Fe3SO3-200912-160322-e53ab1 -0.0512 103.669243 -4.60523301E+003 8.42302 8.69207 9 (P4/mmm) n - 1
REM
REM Run started: Sat, 12 Sep 2020 16:22:41 +0100 in /lustre/scratch/uccabz1/launch_tmp/launcher_2020-09-12-15-03-20-846713
REM CASTEP 20.1 from code version af48c487+ pr-geom-scf-spinfix Tue Jun 2 15:39:59 2020 +0100
REM Functional Perdew Burke Ernzerhof Relativity Koelling-Harmon Dispersion off
REM Cut-off 340.0000 eV Grid scale 1.7500 Gmax 16.5316 1/A FBSC none
REM MP grid 5 5 2 Offset 0.000 0.000 0.000 No. kpts 6 Spacing 0.07
REM Total runtime: 1246.08 s
REM Overall efficiency: 88.8 %
REM
REM
REM
REM compiler GCC version 4.9.2
REM options -cpp -iprefix /lustre/shared/ucl/apps/gcc/4.9.2/bin/../lib/gcc/x86_64-unknown-linux-gnu/4.9.2/ -mtune=corei7 -march=x86-64 -g -Og
REM COMMAND_LINE
REM seed 1983660982 1500072084 768834412 1735681978 -1699136004 -1176039678 1277178600 -737632029 589641876 1935596161 1433128142 1745754571
REM
REM S 3|1.8|5|6|7|30:31:32(qc=5)
REM O 2|1.5|12|13|15|20:21(qc=5)
REM Li 1|1.3|8|9|10|10U:20(qc=5)
REM Fe 3|2.2|2.0|1.0|8|9|10|40:41:32(qc=5)
REM 
CELL 1.54180    2.94812    2.94812   11.92775   90.00000   90.00000   90.00000
LATT -1
SFAC Li O  S  Fe 
Li     1 -0.5000000000000  0.5000000000000 -0.0853490000000 1.0  -0.03
Li     1 -0.5000000000000  0.5000000000000  0.0853490000000 1.0  -0.03
O      2 -0.5000000000000  0.5000000000000 -0.2494990000000 1.0   0.28
O      2 -0.5000000000000  0.5000000000000  0.2494990000000 1.0   0.28
O      2  0.0000000000000  0.0000000000000  0.0000000000000 1.0  -0.03
S      3 -0.5000000000000  0.5000000000000 -0.5000000000000 1.0   0.05
Fe     4  0.0000000000000 -0.0000000000000 -0.2781080000000 1.0   3.58
Fe     4  0.0000000000000  0.0000000000000  0.2781080000000 1.0   3.58
Fe     4  0.0000000000000  0.0000000000000  0.5000000000000 1.0   0.76
END
