TITL LFSO-LiFe3SO4-200908-233520-260bb4 0.4709 361.054469 -9.69106680E+003 2.25471 12.7502 18 (Cm) n - 1
REM
REM Run started: Thu, 10 Sep 2020 05:33:25 +0100 in /lustre/scratch/uccabz1/launch_tmp/launcher_2020-09-08-22-35-18-571873
REM CASTEP 20.1 from code version af48c487+ pr-geom-scf-spinfix Tue Jun 2 15:39:59 2020 +0100
REM Functional Perdew Burke Ernzerhof Relativity Koelling-Harmon Dispersion off
REM Cut-off 340.0000 eV Grid scale 1.7500 Gmax 16.5316 1/A FBSC none
REM MP grid 5 2 2 Offset 0.000 0.000 0.000 No. kpts 8 Spacing 0.07
REM Total runtime: 122961 s
REM Overall efficiency: 98.3333 %
REM
REM
REM
REM compiler GCC version 4.9.2
REM options -cpp -iprefix /lustre/shared/ucl/apps/gcc/4.9.2/bin/../lib/gcc/x86_64-unknown-linux-gnu/4.9.2/ -mtune=corei7 -march=x86-64 -g -Og
REM COMMAND_LINE
REM seed -1084395609 364262676 -63058573 231634934 1476280147 -980205723 2127052271 829611841 1374091719 -1090091557 -1272855656 -110792662
REM
REM S 3|1.8|5|6|7|30:31:32(qc=5)
REM O 2|1.5|12|13|15|20:21(qc=5)
REM Li 1|1.3|8|9|10|10U:20(qc=5)
REM Fe 3|2.2|2.0|1.0|8|9|10|40:41:32(qc=5)
REM 
CELL 1.54180    3.38566   11.75461   11.75461  125.71030   98.14708   98.14708
LATT -1
SFAC Li O  S  Fe 
Li     1  0.2493180000000 -0.1037410000000  0.1983650000000 1.0  -0.00
Li     1  0.2493180000000  0.1983650000000 -0.1037410000000 1.0  -0.00
O      2 -0.1668390000000  0.0240100000000  0.2740220000000 1.0   0.44
O      2 -0.1668390000000  0.2740220000000  0.0240100000000 1.0   0.44
O      2 -0.4101100000000  0.1096220000000 -0.2785290000000 1.0  -0.22
O      2 -0.4101100000000 -0.2785290000000  0.1096220000000 1.0  -0.22
O      2 -0.4596940000000 -0.4664070000000  0.1995490000000 1.0   0.12
O      2 -0.4596940000000  0.1995490000000 -0.4664070000000 1.0   0.12
O      2  0.2607530000000 -0.1646560000000  0.3296000000000 1.0  -0.04
O      2  0.2607530000000  0.3296000000000 -0.1646560000000 1.0  -0.04
S      3 -0.1387350000000 -0.1659220000000 -0.4718580000000 1.0   0.03
S      3 -0.1387350000000 -0.4718580000000 -0.1659220000000 1.0   0.03
Fe     4 -0.3033990000000 -0.2505670000000  0.2876700000000 1.0  -0.18
Fe     4 -0.3033990000000  0.2876700000000 -0.2505670000000 1.0  -0.18
Fe     4 -0.0202370000000  0.1542670000000 -0.5447110000000 1.0   2.75
Fe     4 -0.0202370000000 -0.5447110000000  0.1542670000000 1.0   2.75
Fe     4  0.4302940000000 -0.4620640000000 -0.0402630000000 1.0  -1.78
Fe     4  0.4302940000000 -0.0402630000000 -0.4620640000000 1.0  -1.78
END
