TITL LFSO-Li4Fe2S3O-200911-020812-422a63 0.9854 401.565726 -7.75210403E+003 12.0000 12.4161 20 (P-1) n - 1
REM
REM Run started: Fri, 11 Sep 2020 15:21:20 +0100 in /lustre/scratch/uccabz1/launch_tmp/launcher_2020-09-11-13-39-13-165460
REM CASTEP 20.1 from code version af48c487+ pr-geom-scf-spinfix Tue Jun 2 15:39:59 2020 +0100
REM Functional Perdew Burke Ernzerhof Relativity Koelling-Harmon Dispersion off
REM Cut-off 340.0000 eV Grid scale 1.7500 Gmax 16.5316 1/A FBSC none
REM MP grid 4 2 2 Offset 0.000 0.000 0.000 No. kpts 8 Spacing 0.07
REM Total runtime: 44654 s
REM Overall efficiency: 98.3 %
REM
REM
REM
REM compiler GCC version 4.9.2
REM options -cpp -iprefix /lustre/shared/ucl/apps/gcc/4.9.2/bin/../lib/gcc/x86_64-unknown-linux-gnu/4.9.2/ -mtune=corei7 -march=x86-64 -g -Og
REM COMMAND_LINE
REM seed -979749495 1364304304 1716230128 -1640975649 1150319512 20908310 -1186610941 -313442145 1664938003 -1434495230 -2094908969 -384554737
REM
REM S 3|1.8|5|6|7|30:31:32(qc=5)
REM O 2|1.5|12|13|15|20:21(qc=5)
REM Li 1|1.3|8|9|10|10U:20(qc=5)
REM Fe 3|2.2|2.0|1.0|8|9|10|40:41:32(qc=5)
REM 
CELL 1.54180    5.61810   10.51637    8.64317   84.02424  103.76410  125.86148
LATT -1
SFAC Li O  S  Fe 
Li     1  0.3556990000000  0.1543840000000 -0.2282720000000 1.0  -0.02
Li     1 -0.3556990000000 -0.1543840000000  0.2282720000000 1.0  -0.02
Li     1 -0.1794180000000 -0.3828330000000  0.1246520000000 1.0  -0.09
Li     1  0.1794180000000  0.3828330000000 -0.1246520000000 1.0  -0.09
Li     1 -0.3472660000000  0.1307040000000  0.0726250000000 1.0  -0.01
Li     1  0.3472660000000 -0.1307040000000 -0.0726250000000 1.0  -0.01
Li     1 -0.1985140000000  0.3692600000000 -0.6330050000000 1.0  -0.03
Li     1  0.1985140000000 -0.3692600000000  0.6330050000000 1.0  -0.03
O      2 -0.2378230000000 -0.0264420000000  0.0481890000000 1.0   0.14
O      2  0.2378230000000  0.0264420000000 -0.0481890000000 1.0   0.14
S      3  0.4107050000000 -0.3579820000000 -0.0235350000000 1.0   0.16
S      3 -0.4107050000000  0.3579820000000  0.0235350000000 1.0   0.16
S      3  0.1305330000000  0.2752840000000  0.2466450000000 1.0   0.12
S      3 -0.1305330000000 -0.2752840000000 -0.2466450000000 1.0   0.12
S      3  0.2212030000000 -0.3341520000000  0.3511090000000 1.0   0.18
S      3 -0.2212030000000  0.3341520000000 -0.3511090000000 1.0   0.18
Fe     4  0.1590770000000  0.1415280000000  0.0647350000000 1.0   2.22
Fe     4 -0.1590770000000 -0.1415280000000 -0.0647350000000 1.0   2.22
Fe     4  0.2344560000000  0.5123640000000  0.1984020000000 1.0   3.33
Fe     4 -0.2344560000000 -0.5123640000000 -0.1984020000000 1.0   3.33
END
