TITL LFSO-Li4Fe3SO4-200927-182239-a574c7 0.0213 398.276843 -1.08886346E+004 20.3196 21.0146 24 (Iba2) n - 1
REM
REM Run started: Tue, 29 Sep 2020 00:34:04 +0100 in /lustre/scratch/uccabz1/launch_tmp/launcher_2020-09-28-13-05-20-534582
REM CASTEP 20.1 from code version af48c487+ pr-geom-scf-spinfix Tue Jun 2 15:39:59 2020 +0100
REM Functional Perdew Burke Ernzerhof Relativity Koelling-Harmon Dispersion off
REM Cut-off 340.0000 eV Grid scale 1.7500 Gmax 16.5316 1/A FBSC none
REM MP grid 3 3 3 Offset 0.000 0.000 0.000 No. kpts 8 Spacing 0.07
REM Total runtime: 47360.9 s
REM Overall efficiency: 98.3636 %
REM
REM
REM
REM compiler GCC version 4.9.2
REM options -cpp -iprefix /lustre/shared/ucl/apps/gcc/4.9.2/bin/../lib/gcc/x86_64-unknown-linux-gnu/4.9.2/ -mtune=corei7 -march=x86-64 -g -Og
REM COMMAND_LINE
REM seed -1481386674 189911995 -237686236 4217648 -1259614369 2130847402 -498684077 294755295 -1048164992 1873386621 -1734158202 580793874
REM
REM S 3|1.8|5|6|7|30:31:32(qc=5)
REM O 2|1.5|12|13|15|20:21(qc=5)
REM Li 1|1.3|8|9|10|10U:20(qc=5)
REM Fe 3|2.2|2.0|1.0|8|9|10|40:41:32(qc=5)
REM 
CELL 1.54180    9.25691    8.16728    8.16728   57.80470   55.47912   55.47912
LATT -1
SFAC Li O  S  Fe 
Li     1  0.0956080000000  0.4234090000000 -0.2152420000000 1.0  -0.08
Li     1 -0.0956080000000  0.2152420000000 -0.4234090000000 1.0  -0.08
Li     1 -0.3037760000000 -0.0765910000000  0.2847580000000 1.0  -0.08
Li     1  0.3037760000000 -0.2847580000000  0.0765910000000 1.0  -0.08
Li     1  0.0679370000000 -0.1780320000000  0.5201470000000 1.0  -0.04
Li     1 -0.0679370000000 -0.5201470000000  0.1780320000000 1.0  -0.04
Li     1 -0.4100530000000  0.3219680000000  0.0201470000000 1.0  -0.04
Li     1  0.4100530000000 -0.0201470000000 -0.3219680000000 1.0  -0.04
O      2 -0.3018210000000 -0.3547820000000  0.3517870000000 1.0   0.20
O      2  0.3018210000000 -0.3517870000000  0.3547820000000 1.0   0.20
O      2  0.3048150000000  0.1452180000000 -0.1482130000000 1.0   0.20
O      2 -0.3048150000000  0.1482130000000 -0.1452180000000 1.0   0.20
O      2  0.0054080000000 -0.3562920000000 -0.1300070000000 1.0   0.27
O      2 -0.0054080000000  0.1300070000000  0.3562920000000 1.0   0.27
O      2 -0.5191080000000  0.1437080000000  0.3699930000000 1.0   0.27
O      2  0.5191080000000 -0.3699930000000 -0.1437080000000 1.0   0.27
S      3  0.0000000000000 -0.0122760000000  0.0122760000000 1.0   0.15
S      3  0.0000000000000 -0.5122760000000  0.5122760000000 1.0   0.15
Fe     4  0.1093270000000  0.0988110000000  0.1102720000000 1.0   3.05
Fe     4 -0.1093270000000 -0.1102720000000 -0.0988110000000 1.0   3.05
Fe     4 -0.3184100000000 -0.4011890000000 -0.3897280000000 1.0   3.05
Fe     4  0.3184100000000  0.3897280000000  0.4011890000000 1.0   3.05
Fe     4 -0.5000000000000  0.1355060000000 -0.1355060000000 1.0   3.22
Fe     4 -0.5000000000000 -0.3644940000000  0.3644940000000 1.0   3.22
END
