TITL LFSO-Li2Fe4S2O3-200912-075455-81c904 -0.0577 400.969420 -1.15473781E+004 18.5510 19.4745 22 (I4) n - 1
REM
REM Run started: Sun, 13 Sep 2020 08:33:36 +0100 in /lustre/scratch/uccabz1/launch_tmp/launcher_2020-09-12-06-54-52-634188
REM CASTEP 20.1 from code version af48c487+ pr-geom-scf-spinfix Tue Jun 2 15:39:59 2020 +0100
REM Functional Perdew Burke Ernzerhof Relativity Koelling-Harmon Dispersion off
REM Cut-off 340.0000 eV Grid scale 1.7500 Gmax 16.5316 1/A FBSC none
REM MP grid 3 3 3 Offset 0.000 0.000 0.000 No. kpts 6 Spacing 0.07
REM Total runtime: 98117.7 s
REM Overall efficiency: 98.9167 %
REM
REM
REM
REM compiler GCC version 4.9.2
REM options -cpp -iprefix /lustre/shared/ucl/apps/gcc/4.9.2/bin/../lib/gcc/x86_64-unknown-linux-gnu/4.9.2/ -mtune=corei7 -march=x86-64 -g -Og
REM COMMAND_LINE
REM seed -1768211022 -1566870054 1867683752 -1225812674 -1631792310 881595814 1937456168 232118453 1598033409 -1087198735 1224361413 -509431381
REM
REM S 3|1.8|5|6|7|30:31:32(qc=5)
REM O 2|1.5|12|13|15|20:21(qc=5)
REM Li 1|1.3|8|9|10|10U:20(qc=5)
REM Fe 3|2.2|2.0|1.0|8|9|10|40:41:32(qc=5)
REM 
CELL 1.54180    8.08811    8.08811    8.08811  101.13240  113.79476  113.79476
LATT -1
SFAC Li O  S  Fe 
Li     1 -0.3111950000000 -0.3974110000000 -0.0067760000000 1.0  -0.03
Li     1  0.3111950000000  0.3044190000000 -0.0862160000000 1.0  -0.03
Li     1  0.3906350000000 -0.0067760000000  0.3044190000000 1.0  -0.03
Li     1 -0.3906350000000 -0.0862160000000 -0.3974110000000 1.0  -0.03
O      2 -0.5416200000000 -0.0544950000000 -0.2848550000000 1.0   0.18
O      2  0.5416200000000  0.2567650000000  0.4871250000000 1.0   0.18
O      2 -0.2303600000000 -0.2848550000000  0.2567650000000 1.0   0.18
O      2  0.2303600000000  0.4871250000000 -0.0544950000000 1.0   0.18
O      2  0.5000000000000 -0.1693640000000  0.3306360000000 1.0   0.16
O      2 -0.5000000000000  0.3306360000000 -0.1693640000000 1.0   0.16
S      3 -0.0580540000000 -0.5192220000000  0.1034010000000 1.0  -0.03
S      3  0.0580540000000  0.1614550000000 -0.4611680000000 1.0  -0.03
S      3  0.6226230000000  0.1034010000000  0.1614550000000 1.0  -0.03
S      3 -0.6226230000000 -0.4611680000000 -0.5192220000000 1.0  -0.03
Fe     4 -0.2456100000000  0.3488160000000  0.4400160000000 1.0   2.06
Fe     4  0.2456100000000 -0.3143740000000 -0.4055740000000 1.0   2.06
Fe     4  0.0912000000000  0.4400160000000 -0.3143740000000 1.0   2.06
Fe     4 -0.0912000000000 -0.4055740000000  0.3488160000000 1.0   2.06
Fe     4  0.3762080000000  0.3014910000000 -0.4300660000000 1.0   2.38
Fe     4 -0.3762080000000  0.1937260000000 -0.0747170000000 1.0   2.38
Fe     4 -0.7315570000000 -0.4300660000000  0.1937260000000 1.0   2.38
Fe     4  0.7315570000000 -0.0747170000000  0.3014910000000 1.0   2.38
END
