TITL LFSO-Li2Fe2S2O-200913-121314-dbe280 0.0539 244.769311 -6.34581804E+003 15.9677 16.1690 14 (Fdd2) n - 1
REM
REM Run started: Sun, 13 Sep 2020 16:11:27 +0100 in /lustre/scratch/uccabz1/launch_tmp/launcher_2020-09-13-11-13-12-650316
REM CASTEP 20.1 from code version af48c487+ pr-geom-scf-spinfix Tue Jun 2 15:39:59 2020 +0100
REM Functional Perdew Burke Ernzerhof Relativity Koelling-Harmon Dispersion off
REM Cut-off 340.0000 eV Grid scale 1.7500 Gmax 16.5316 1/A FBSC none
REM MP grid 3 3 3 Offset 0.000 0.000 0.000 No. kpts 8 Spacing 0.07
REM Total runtime: 16309.8 s
REM Overall efficiency: 97.5556 %
REM
REM
REM
REM compiler GCC version 4.9.2
REM options -cpp -iprefix /lustre/shared/ucl/apps/gcc/4.9.2/bin/../lib/gcc/x86_64-unknown-linux-gnu/4.9.2/ -mtune=corei7 -march=x86-64 -g -Og
REM COMMAND_LINE
REM seed -627581377 207104533 1910935123 2102438770 296400847 -1951807354 177991799 167616855 -1425391378 -1860181493 404341975 -945330124
REM
REM S 3|1.8|5|6|7|30:31:32(qc=5)
REM O 2|1.5|12|13|15|20:21(qc=5)
REM Li 1|1.3|8|9|10|10U:20(qc=5)
REM Fe 3|2.2|2.0|1.0|8|9|10|40:41:32(qc=5)
REM 
CELL 1.54180    6.89448    6.89448    8.02559  126.71793  126.71793   66.92552
LATT -1
SFAC Li O  S  Fe 
Li     1  0.4752370000000  0.4407030000000 -0.3287800000000 1.0   0.02
Li     1 -0.4407030000000 -0.4752370000000  0.3287800000000 1.0   0.02
Li     1  0.0540170000000 -0.4805170000000 -0.1712200000000 1.0   0.02
Li     1  0.4805170000000 -0.0540170000000  0.1712200000000 1.0   0.02
O      2  0.1745630000000 -0.1745630000000 -0.0000000000000 1.0   0.36
O      2 -0.5754370000000  0.5754370000000 -0.5000000000000 1.0   0.36
S      3 -0.2000160000000 -0.2864940000000  0.0617980000000 1.0   0.25
S      3  0.2864940000000  0.2000160000000 -0.0617980000000 1.0   0.25
S      3 -0.0118140000000  0.4017080000000  0.4382020000000 1.0   0.25
S      3 -0.4017080000000  0.0118140000000 -0.4382020000000 1.0   0.25
Fe     4 -0.0017200000000 -0.0203820000000 -0.1879100000000 1.0   3.55
Fe     4  0.0203820000000  0.0017200000000  0.1879100000000 1.0   3.55
Fe     4  0.4361900000000 -0.0824730000000 -0.3120900000000 1.0   3.55
Fe     4  0.0824730000000 -0.4361900000000  0.3120900000000 1.0   3.55
END
