TITL LFSO-Li3Fe3S4O2-200929-213636-c8529b -0.3134 549.001743 -1.05619098E+004 9.91092 11.2442 24 (R3) n - 1
REM
REM Run started: Thu, 01 Oct 2020 07:35:33 +0100 in /scratch/scratch/uccabz1/launch_tmp/launcher_2020-10-01-04-20-40-234825
REM CASTEP 19.11| from code version Version unavailable
REM Functional Perdew Burke Ernzerhof Relativity Koelling-Harmon Dispersion off
REM Cut-off 340.0000 eV Grid scale 1.7500 Gmax 16.5316 1/A FBSC none
REM MP grid 3 3 3 Offset 0.000 0.000 0.000 No. kpts 6 Spacing 0.07
REM Total runtime: 119457 s
REM Overall efficiency: 98.8333 %
REM
REM
REM
REM compiler GCC version 4.9.2
REM options -cpp -iprefix /lustre/shared/ucl/apps/gcc/4.9.2/bin/../lib/gcc/x86_64-unknown-linux-gnu/4.9.2/ -mtune=corei7 -march=x86-64 -g -Og
REM COMMAND_LINE
REM seed 1663957065 -2048490377 -1723744556 1503424687 2048498477 278018324 -989265510 2020546749 -685956977 -2138566091 1196226643 -1893485268
REM
REM S 3|1.8|5|6|7|30:31:32(qc=5)
REM O 2|1.5|12|13|15|20:21(qc=5)
REM Li 1|1.3|8|9|10|10U:20(qc=5)
REM Fe 3|2.2|2.0|1.0|8|9|10|40:41:32(qc=5)
REM 
CELL 1.54180   12.13451   12.13451   12.13451   35.88576   35.88576   35.88576
LATT -1
SFAC Li O  S  Fe 
Li     1 -0.4300890000000 -0.0640030000000 -0.1099380000000 1.0   0.00
Li     1 -0.0640030000000 -0.1099380000000 -0.4300890000000 1.0   0.00
Li     1 -0.1099380000000 -0.4300890000000 -0.0640030000000 1.0   0.00
Li     1  0.1665830000000 -0.3052070000000 -0.2617310000000 1.0  -0.02
Li     1 -0.3052070000000 -0.2617310000000  0.1665830000000 1.0  -0.02
Li     1 -0.2617310000000  0.1665830000000 -0.3052070000000 1.0  -0.02
O      2 -0.0695840000000 -0.2251370000000 -0.4746900000000 1.0   0.21
O      2 -0.2251370000000 -0.4746900000000 -0.0695840000000 1.0   0.21
O      2 -0.4746900000000 -0.0695840000000 -0.2251370000000 1.0   0.21
O      2 -0.1591290000000 -0.1591290000000 -0.1591290000000 1.0  -0.00
S      3  0.3928350000000 -0.2713440000000  0.2596210000000 1.0   0.00
S      3 -0.2713440000000  0.2596210000000  0.3928350000000 1.0   0.00
S      3  0.2596210000000  0.3928350000000 -0.2713440000000 1.0   0.00
S      3 -0.3473780000000  0.1490440000000  0.2871140000000 1.0  -0.06
S      3  0.1490440000000  0.2871140000000 -0.3473780000000 1.0  -0.06
S      3  0.2871140000000 -0.3473780000000  0.1490440000000 1.0  -0.06
S      3  0.0924230000000  0.0924230000000  0.0924230000000 1.0  -0.10
S      3 -0.4462500000000 -0.4462500000000 -0.4462500000000 1.0   0.51
Fe     4 -0.4346640000000  0.4680310000000  0.2057970000000 1.0   1.53
Fe     4  0.4680310000000  0.2057970000000 -0.4346640000000 1.0   1.53
Fe     4  0.2057970000000 -0.4346640000000  0.4680310000000 1.0   1.53
Fe     4 -0.1082450000000  0.2734290000000 -0.0234840000000 1.0   1.50
Fe     4  0.2734290000000 -0.0234840000000 -0.1082450000000 1.0   1.50
Fe     4 -0.0234840000000 -0.1082450000000  0.2734290000000 1.0   1.50
END
