TITL LFSO-Li5FeS2O2-200920-232252-4710fb 0.0576 388.014808 -6.69477517E+003 6.00001 6.62947 20 (P21) n - 1
REM
REM Run started: Mon, 21 Sep 2020 07:54:40 +0100 in /lustre/scratch/uccabz1/launch_tmp/launcher_2020-09-20-22-22-50-700468
REM CASTEP 20.1 from code version af48c487+ pr-geom-scf-spinfix Tue Jun 2 15:39:59 2020 +0100
REM Functional Perdew Burke Ernzerhof Relativity Koelling-Harmon Dispersion off
REM Cut-off 340.0000 eV Grid scale 1.7500 Gmax 16.5316 1/A FBSC none
REM MP grid 4 3 2 Offset 0.000 0.000 0.000 No. kpts 6 Spacing 0.07
REM Total runtime: 34252.6 s
REM Overall efficiency: 94.1667 %
REM
REM
REM
REM compiler GCC version 4.9.2
REM options -cpp -iprefix /lustre/shared/ucl/apps/gcc/4.9.2/bin/../lib/gcc/x86_64-unknown-linux-gnu/4.9.2/ -mtune=corei7 -march=x86-64 -g -Og
REM COMMAND_LINE
REM seed -440924807 375693728 -1961728414 -832755803 -1545362441 1537289029 -247564053 -163380992 1700728518 -1060896967 -1338394056 -1407267508
REM
REM S 3|1.8|5|6|7|30:31:32(qc=5)
REM O 2|1.5|12|13|15|20:21(qc=5)
REM Li 1|1.3|8|9|10|10U:20(qc=5)
REM Fe 3|2.2|2.0|1.0|8|9|10|40:41:32(qc=5)
REM 
CELL 1.54180    6.85259   10.34352    9.00089   90.00000   90.00000  142.54120
LATT -1
SFAC Li O  S  Fe 
Li     1  0.3178570000000 -0.0170550000000 -0.5936320000000 1.0  -0.02
Li     1 -0.3178570000000  0.0170550000000 -0.0936320000000 1.0  -0.02
Li     1 -0.2057420000000 -0.7341160000000  0.0710020000000 1.0   0.01
Li     1  0.2057420000000  0.7341160000000 -0.4289980000000 1.0   0.01
Li     1 -0.1379180000000 -0.1178000000000 -0.4863160000000 1.0  -0.01
Li     1  0.1379180000000  0.1178000000000  0.0136840000000 1.0  -0.01
Li     1  0.1328660000000 -0.1445030000000  0.0506810000000 1.0  -0.01
Li     1 -0.1328660000000  0.1445030000000  0.5506810000000 1.0  -0.01
Li     1  0.6202100000000  0.3641090000000 -0.1710870000000 1.0  -0.01
Li     1 -0.6202100000000 -0.3641090000000  0.3289130000000 1.0  -0.01
O      2  0.0953640000000 -0.1440440000000 -0.4193910000000 1.0   0.22
O      2 -0.0953640000000  0.1440440000000  0.0806090000000 1.0   0.22
O      2  0.4355230000000  0.1203730000000 -0.0615110000000 1.0   0.10
O      2 -0.4355230000000 -0.1203730000000  0.4384890000000 1.0   0.10
S      3 -0.1398690000000 -0.7114730000000  0.3480970000000 1.0   0.01
S      3  0.1398690000000  0.7114730000000 -0.1519030000000 1.0   0.01
S      3 -0.0974360000000 -0.1232850000000  0.2397480000000 1.0   0.04
S      3  0.0974360000000  0.1232850000000 -0.2602520000000 1.0   0.04
Fe     4 -0.2060250000000  0.0419540000000  0.2634880000000 1.0   2.66
Fe     4  0.2060250000000 -0.0419540000000 -0.2365120000000 1.0   2.66
END
