TITL LFSO-Li2Fe2S2O-200913-121659-56582c 0.0006 331.850465 -9.51900423E+003 -13.8510 14.5133 21 (P-1) n - 1
REM
REM Run started: Tue, 15 Sep 2020 12:52:22 +0100 in /lustre/scratch/uccabz1/launch_tmp/launcher_2020-09-13-22-12-22-205630
REM CASTEP 20.1 from code version af48c487+ pr-geom-scf-spinfix Tue Jun 2 15:39:59 2020 +0100
REM Functional Perdew Burke Ernzerhof Relativity Koelling-Harmon Dispersion off
REM Cut-off 340.0000 eV Grid scale 1.7500 Gmax 16.5316 1/A FBSC none
REM MP grid 3 4 2 Offset 0.000 0.000 0.000 No. kpts 12 Spacing 0.07
REM Total runtime: 182929 s
REM Overall efficiency: 99 %
REM
REM
REM
REM compiler GCC version 4.9.2
REM options -cpp -iprefix /lustre/shared/ucl/apps/gcc/4.9.2/bin/../lib/gcc/x86_64-unknown-linux-gnu/4.9.2/ -mtune=corei7 -march=x86-64 -g -Og
REM COMMAND_LINE
REM seed -896254597 926015354 -1057339892 -1111074635 227575121 -1085787285 -2127866819 -618764716 1642258972 2054901516 -1847752571 1204754326
REM
REM S 3|1.8|5|6|7|30:31:32(qc=5)
REM O 2|1.5|12|13|15|20:21(qc=5)
REM Li 1|1.3|8|9|10|10U:20(qc=5)
REM Fe 3|2.2|2.0|1.0|8|9|10|40:41:32(qc=5)
REM 
CELL 1.54180    6.37014    6.12394   12.62377   54.46241   82.71174   58.79861
LATT -1
SFAC Li O  S  Fe 
Li     1 -0.2502000000000 -0.0884200000000  0.0616000000000 1.0  -0.01
Li     1  0.2502000000000  0.0884200000000 -0.0616000000000 1.0  -0.01
Li     1 -0.0138540000000 -0.2280710000000 -0.0648180000000 1.0   0.00
Li     1  0.0138540000000  0.2280710000000  0.0648180000000 1.0   0.00
Li     1 -0.8009190000000  0.5790770000000  0.1582670000000 1.0   0.01
Li     1  0.8009190000000 -0.5790770000000 -0.1582670000000 1.0   0.01
O      2  0.0193750000000  0.5378240000000 -0.1317360000000 1.0  -0.26
O      2 -0.0193750000000 -0.5378240000000  0.1317360000000 1.0  -0.26
O      2  0.0000000000000  0.0000000000000  0.0000000000000 1.0  -0.02
S      3 -0.4795790000000  0.2380340000000 -0.1925100000000 1.0  -0.13
S      3  0.4795790000000 -0.2380340000000  0.1925100000000 1.0  -0.13
S      3  0.1016570000000 -0.2265840000000  0.4382110000000 1.0  -0.05
S      3 -0.1016570000000  0.2265840000000 -0.4382110000000 1.0  -0.05
S      3  0.4923990000000 -0.0658840000000 -0.3739550000000 1.0   0.01
S      3 -0.4923990000000  0.0658840000000  0.3739550000000 1.0   0.01
Fe     4  0.2254290000000 -0.0105460000000  0.4880810000000 1.0  -0.97
Fe     4 -0.2254290000000  0.0105460000000 -0.4880810000000 1.0  -0.97
Fe     4 -0.1253490000000  0.3165340000000  0.2834750000000 1.0  -2.80
Fe     4  0.1253490000000 -0.3165340000000 -0.2834750000000 1.0  -2.80
Fe     4 -0.4802030000000 -0.3268700000000  0.3913480000000 1.0  -2.70
Fe     4  0.4802030000000  0.3268700000000 -0.3913480000000 1.0  -2.70
END
