TITL LFSO-Li4Fe2S3O-200911-010024-5ba0f3 0.0205 175.406689 -3.87409821E+003 6.57599 6.80200 10 (Amm2) n - 1
REM
REM Run started: Fri, 11 Sep 2020 02:23:43 +0100 in /lustre/scratch/uccabz1/launch_tmp/launcher_2020-09-11-00-00-22-466975
REM CASTEP 20.1 from code version af48c487+ pr-geom-scf-spinfix Tue Jun 2 15:39:59 2020 +0100
REM Functional Perdew Burke Ernzerhof Relativity Koelling-Harmon Dispersion off
REM Cut-off 340.0000 eV Grid scale 1.7500 Gmax 16.5316 1/A FBSC none
REM MP grid 4 4 2 Offset 0.000 0.000 0.000 No. kpts 6 Spacing 0.07
REM Total runtime: 5356.64 s
REM Overall efficiency: 95.125 %
REM
REM
REM
REM compiler GCC version 4.9.2
REM options -cpp -iprefix /lustre/shared/ucl/apps/gcc/4.9.2/bin/../lib/gcc/x86_64-unknown-linux-gnu/4.9.2/ -mtune=corei7 -march=x86-64 -g -Og
REM COMMAND_LINE
REM seed 2017696826 892702050 2085375109 815514506 -839886855 1029950518 829049692 -1142553339 420744422 -1191657244 -557957950 1016851304
REM
REM S 3|1.8|5|6|7|30:31:32(qc=5)
REM O 2|1.5|12|13|15|20:21(qc=5)
REM Li 1|1.3|8|9|10|10U:20(qc=5)
REM Fe 3|2.2|2.0|1.0|8|9|10|40:41:32(qc=5)
REM 
CELL 1.54180    4.49311    4.49311    8.87706   90.00000   90.00000  101.82585
LATT -1
SFAC Li O  S  Fe 
Li     1  0.3522890000000  0.1894940000000 -0.3379940000000 1.0   0.01
Li     1 -0.1894940000000 -0.3522890000000  0.3379940000000 1.0   0.01
Li     1 -0.1894940000000 -0.3522890000000 -0.3379940000000 1.0   0.01
Li     1  0.3522890000000  0.1894940000000  0.3379940000000 1.0   0.01
O      2 -0.3386850000000  0.3386850000000 -0.5000000000000 1.0   0.01
S      3  0.3146880000000 -0.3146880000000  0.2053660000000 1.0   0.10
S      3  0.3146880000000 -0.3146880000000 -0.2053660000000 1.0   0.10
S      3 -0.0903120000000  0.0903120000000 -0.5000000000000 1.0   0.02
Fe     4 -0.4437180000000 -0.0595230000000  0.0000000000000 1.0   3.15
Fe     4  0.0595230000000  0.4437180000000 -0.0000000000000 1.0   3.15
END
