TITL LFSO-Li2Fe2S2O-200913-131910-c81804 0.0363 215.255858 -6.34489215E+003 6.02807 12.9809 14 (R3) n - 1
REM
REM Run started: Sun, 13 Sep 2020 18:17:05 +0100 in /lustre/scratch/uccabz1/launch_tmp/launcher_2020-09-13-12-19-08-650582
REM CASTEP 20.1 from code version af48c487+ pr-geom-scf-spinfix Tue Jun 2 15:39:59 2020 +0100
REM Functional Perdew Burke Ernzerhof Relativity Koelling-Harmon Dispersion off
REM Cut-off 340.0000 eV Grid scale 1.7500 Gmax 16.5316 1/A FBSC none
REM MP grid 3 3 3 Offset 0.000 0.000 0.000 No. kpts 6 Spacing 0.07
REM Total runtime: 18153.9 s
REM Overall efficiency: 97.875 %
REM
REM
REM
REM compiler GCC version 4.9.2
REM options -cpp -iprefix /lustre/shared/ucl/apps/gcc/4.9.2/bin/../lib/gcc/x86_64-unknown-linux-gnu/4.9.2/ -mtune=corei7 -march=x86-64 -g -Og
REM COMMAND_LINE
REM seed 2060604183 1426989101 -199150387 -2058658659 -1914587318 -81011456 399529057 -496420740 -1825808651 -1818941308 912502544 1129150982
REM
REM S 3|1.8|5|6|7|30:31:32(qc=5)
REM O 2|1.5|12|13|15|20:21(qc=5)
REM Li 1|1.3|8|9|10|10U:20(qc=5)
REM Fe 3|2.2|2.0|1.0|8|9|10|40:41:32(qc=5)
REM 
CELL 1.54180    7.22483    7.22483    7.22483   51.80450   51.80450   51.80450
LATT -1
SFAC Li O  S  Fe 
Li     1 -0.4171300000000  0.1005760000000 -0.5159930000000 1.0   0.01
Li     1  0.1005760000000 -0.5159930000000 -0.4171300000000 1.0   0.01
Li     1 -0.5159930000000 -0.4171300000000  0.1005760000000 1.0   0.01
Li     1  0.2477220000000  0.2477220000000  0.2477220000000 1.0  -0.10
O      2  0.0029130000000  0.0029130000000  0.0029130000000 1.0   0.04
O      2  0.3428610000000  0.3428610000000  0.3428610000000 1.0   0.12
S      3  0.4898180000000  0.1048360000000 -0.1325060000000 1.0  -0.08
S      3  0.1048360000000 -0.1325060000000  0.4898180000000 1.0  -0.08
S      3 -0.1325060000000  0.4898180000000  0.1048360000000 1.0  -0.08
S      3 -0.3625070000000 -0.3625070000000 -0.3625070000000 1.0   0.07
Fe     4  0.1819790000000 -0.1486070000000 -0.2508570000000 1.0   3.05
Fe     4 -0.1486070000000 -0.2508570000000  0.1819790000000 1.0   3.05
Fe     4 -0.2508570000000  0.1819790000000 -0.1486070000000 1.0   3.05
Fe     4  0.1051400000000  0.1051400000000  0.1051400000000 1.0  -3.03
END
