TITL LFSO-Li2Fe2SO3-200913-083440-6e79a7 -0.0474 222.778446 -7.48837213E+003 11.5762 11.8890 16 (P21) n - 1
REM
REM Run started: Sun, 13 Sep 2020 12:20:36 +0100 in /lustre/scratch/uccabz1/launch_tmp/launcher_2020-09-13-07-34-38-884674
REM CASTEP 20.1 from code version af48c487+ pr-geom-scf-spinfix Tue Jun 2 15:39:59 2020 +0100
REM Functional Perdew Burke Ernzerhof Relativity Koelling-Harmon Dispersion off
REM Cut-off 340.0000 eV Grid scale 1.7500 Gmax 16.5316 1/A FBSC none
REM MP grid 5 3 2 Offset 0.000 0.000 0.000 No. kpts 8 Spacing 0.07
REM Total runtime: 13630 s
REM Overall efficiency: 95.4545 %
REM
REM
REM
REM compiler GCC version 4.9.2
REM options -cpp -iprefix /lustre/shared/ucl/apps/gcc/4.9.2/bin/../lib/gcc/x86_64-unknown-linux-gnu/4.9.2/ -mtune=corei7 -march=x86-64 -g -Og
REM COMMAND_LINE
REM seed 1759439643 1272026316 -1648144712 387944345 -1696231354 1403629010 877908458 -1051984364 1770615767 -912355004 -93248173 -128516704
REM
REM S 3|1.8|5|6|7|30:31:32(qc=5)
REM O 2|1.5|12|13|15|20:21(qc=5)
REM Li 1|1.3|8|9|10|10U:20(qc=5)
REM Fe 3|2.2|2.0|1.0|8|9|10|40:41:32(qc=5)
REM 
CELL 1.54180    3.84111    7.02198    9.07895   90.00000   90.00000  114.52932
LATT -1
SFAC Li O  S  Fe 
Li     1 -0.3080580000000 -0.1237170000000 -0.0501250000000 1.0  -0.05
Li     1  0.3080580000000  0.1237170000000  0.4498750000000 1.0  -0.05
Li     1 -0.3263230000000 -0.0683070000000 -0.4274400000000 1.0  -0.02
Li     1  0.3263230000000  0.0683070000000  0.0725600000000 1.0  -0.02
O      2  0.0328210000000 -0.4447490000000  0.2759200000000 1.0   0.28
O      2 -0.0328210000000  0.4447490000000 -0.2240800000000 1.0   0.28
O      2  0.1444320000000 -0.1877760000000 -0.0691540000000 1.0   0.13
O      2 -0.1444320000000  0.1877760000000  0.4308460000000 1.0   0.13
O      2 -0.1921810000000  0.0489490000000  0.1308390000000 1.0   0.30
O      2  0.1921810000000 -0.0489490000000 -0.3691610000000 1.0   0.30
S      3 -0.4115720000000 -0.4541220000000 -0.4566610000000 1.0   0.08
S      3  0.4115720000000  0.4541220000000  0.0433390000000 1.0   0.08
Fe     4 -0.0300190000000  0.3802400000000 -0.4077210000000 1.0   2.45
Fe     4  0.0300190000000 -0.3802400000000  0.0922790000000 1.0   2.45
Fe     4 -0.0152720000000  0.2859840000000  0.2305180000000 1.0   2.62
Fe     4  0.0152720000000 -0.2859840000000 -0.2694820000000 1.0   2.62
END
