TITL LFSO-LiFeSO-200909-053512-950b9e -0.0178 110.189229 -3.61082759E+003 6.95285 7.11405 8 (P2) n - 1
REM
REM Run started: Wed, 09 Sep 2020 06:00:15 +0100 in /lustre/scratch/uccabz1/launch_tmp/launcher_2020-09-09-04-35-10-418513
REM CASTEP 20.1 from code version af48c487+ pr-geom-scf-spinfix Tue Jun 2 15:39:59 2020 +0100
REM Functional Perdew Burke Ernzerhof Relativity Koelling-Harmon Dispersion off
REM Cut-off 340.0000 eV Grid scale 1.7500 Gmax 16.5316 1/A FBSC none
REM MP grid 4 4 3 Offset 0.000 0.000 0.000 No. kpts 16 Spacing 0.07
REM Total runtime: 1599.09 s
REM Overall efficiency: 86.8333 %
REM
REM
REM
REM compiler GCC version 4.9.2
REM options -cpp -iprefix /lustre/shared/ucl/apps/gcc/4.9.2/bin/../lib/gcc/x86_64-unknown-linux-gnu/4.9.2/ -mtune=corei7 -march=x86-64 -g -Og
REM COMMAND_LINE
REM seed 2007357879 -591465152 1421761921 1455696814 1442088169 1032413410 1370585782 1377755427 -855833795 1617845099 -952525631 1123078108
REM
REM S 3|1.8|5|6|7|30:31:32(qc=5)
REM O 2|1.5|12|13|15|20:21(qc=5)
REM Li 1|1.3|8|9|10|10U:20(qc=5)
REM Fe 3|2.2|2.0|1.0|8|9|10|40:41:32(qc=5)
REM 
CELL 1.54180    4.26991    4.38733    5.88196   90.00000   90.00000   89.82445
LATT -1
SFAC Li O  S  Fe 
Li     1 -0.2353140000000 -0.2699060000000 -0.2339090000000 1.0   0.01
Li     1  0.2353140000000  0.2699060000000 -0.2339090000000 1.0   0.01
O      2 -0.2459570000000  0.2558370000000 -0.1614730000000 1.0   0.49
O      2  0.2459570000000 -0.2558370000000 -0.1614730000000 1.0   0.49
S      3 -0.2565270000000 -0.2774630000000  0.2977790000000 1.0   0.03
S      3  0.2565270000000  0.2774630000000  0.2977790000000 1.0   0.03
Fe     4 -0.2386950000000  0.2092140000000  0.1377410000000 1.0   2.95
Fe     4  0.2386950000000 -0.2092140000000  0.1377410000000 1.0   2.95
END
