TITL LFSO-Li2Fe4SO4-200911-231512-90ae60 0.0372 276.788210 -1.18122968E+004 2.50847 6.20056 22 (Cmm2) n - 1
REM
REM Run started: Sat, 12 Sep 2020 23:18:03 +0100 in /lustre/scratch/uccabz1/launch_tmp/launcher_2020-09-11-22-15-09-521447
REM CASTEP 20.1 from code version af48c487+ pr-geom-scf-spinfix Tue Jun 2 15:39:59 2020 +0100
REM Functional Perdew Burke Ernzerhof Relativity Koelling-Harmon Dispersion off
REM Cut-off 340.0000 eV Grid scale 1.7500 Gmax 16.5316 1/A FBSC none
REM MP grid 5 2 2 Offset 0.000 0.000 0.000 No. kpts 6 Spacing 0.07
REM Total runtime: 93145.3 s
REM Overall efficiency: 98.4615 %
REM
REM
REM
REM compiler GCC version 4.9.2
REM options -cpp -iprefix /lustre/shared/ucl/apps/gcc/4.9.2/bin/../lib/gcc/x86_64-unknown-linux-gnu/4.9.2/ -mtune=corei7 -march=x86-64 -g -Og
REM COMMAND_LINE
REM seed 1174681959 1858816870 -1536420836 -1913923311 -319546056 1119462733 429096371 91235536 -807229080 -559464302 -812246968 1124363286
REM
REM S 3|1.8|5|6|7|30:31:32(qc=5)
REM O 2|1.5|12|13|15|20:21(qc=5)
REM Li 1|1.3|8|9|10|10U:20(qc=5)
REM Fe 3|2.2|2.0|1.0|8|9|10|40:41:32(qc=5)
REM 
CELL 1.54180    3.40110    9.57482    9.75511  119.39048   90.00000   90.00000
LATT -1
SFAC Li O  S  Fe 
Li     1 -0.3928550000000  0.3176740000000  0.4091430000000 1.0  -0.02
Li     1 -0.3928550000000 -0.3176740000000 -0.4091430000000 1.0  -0.02
Li     1 -0.3928550000000 -0.0914690000000 -0.4091430000000 1.0  -0.02
Li     1 -0.3928550000000  0.0914690000000  0.4091430000000 1.0  -0.02
O      2  0.1098940000000  0.0964540000000  0.4642830000000 1.0  -0.04
O      2  0.1098940000000 -0.0964540000000 -0.4642830000000 1.0  -0.04
O      2  0.1098940000000 -0.3678290000000 -0.4642830000000 1.0  -0.04
O      2  0.1098940000000  0.3678290000000  0.4642830000000 1.0  -0.04
O      2 -0.1354420000000 -0.2596990000000 -0.1771370000000 1.0   0.01
O      2 -0.1354420000000  0.2596990000000  0.1771370000000 1.0   0.01
O      2 -0.1354420000000 -0.0825620000000  0.1771370000000 1.0   0.01
O      2 -0.1354420000000  0.0825620000000 -0.1771370000000 1.0   0.01
S      3  0.0661040000000 -0.3854350000000  0.2291300000000 1.0   0.09
S      3  0.0661040000000  0.3854350000000 -0.2291300000000 1.0   0.09
Fe     4  0.0781060000000  0.1324120000000 -0.3322990000000 1.0  -0.29
Fe     4  0.0781060000000 -0.1324120000000  0.3322990000000 1.0  -0.29
Fe     4  0.0781060000000 -0.5352890000000  0.3322990000000 1.0  -0.29
Fe     4  0.0781060000000  0.5352890000000 -0.3322990000000 1.0  -0.29
Fe     4  0.3587900000000 -0.0547910000000  0.1229710000000 1.0   0.92
Fe     4  0.3587900000000  0.0547910000000 -0.1229710000000 1.0   0.92
Fe     4  0.3587900000000 -0.1777620000000 -0.1229710000000 1.0   0.92
Fe     4  0.3587900000000  0.1777620000000  0.1229710000000 1.0   0.92
END
