TITL LFSO-Li6FeSO3-200909-230851-0200bf 0.1275 654.036477 -7.36021456E+003 7.99984 8.37549 22 (Cm) n - 1
REM
REM Run started: Thu, 10 Sep 2020 22:37:07 +0100 in /lustre/scratch/uccabz1/launch_tmp/launcher_2020-09-09-22-08-47-900613
REM CASTEP 20.1 from code version af48c487+ pr-geom-scf-spinfix Tue Jun 2 15:39:59 2020 +0100
REM Functional Perdew Burke Ernzerhof Relativity Koelling-Harmon Dispersion off
REM Cut-off 340.0000 eV Grid scale 1.7500 Gmax 16.5316 1/A FBSC none
REM MP grid 5 2 2 Offset 0.000 0.000 0.000 No. kpts 8 Spacing 0.07
REM Total runtime: 108581 s
REM Overall efficiency: 98.5833 %
REM
REM
REM
REM compiler GCC version 4.9.2
REM options -cpp -iprefix /lustre/shared/ucl/apps/gcc/4.9.2/bin/../lib/gcc/x86_64-unknown-linux-gnu/4.9.2/ -mtune=corei7 -march=x86-64 -g -Og
REM COMMAND_LINE
REM seed 262581295 686047883 -1854746960 -566528825 1359223076 -182252032 1685411388 -961141612 1301431107 247035431 885875640 -965305150
REM
REM S 3|1.8|5|6|7|30:31:32(qc=5)
REM O 2|1.5|12|13|15|20:21(qc=5)
REM Li 1|1.3|8|9|10|10U:20(qc=5)
REM Fe 3|2.2|2.0|1.0|8|9|10|40:41:32(qc=5)
REM 
CELL 1.54180    3.73114   18.64576   18.64576  149.09035   92.92234   92.92234
LATT -1
SFAC Li O  S  Fe 
Li     1  0.1650460000000  0.3578960000000  0.0466620000000 1.0  -0.07
Li     1  0.1650460000000  0.0466620000000  0.3578960000000 1.0  -0.07
Li     1  0.2471580000000 -0.3106170000000  0.2337330000000 1.0  -0.02
Li     1  0.2471580000000  0.2337330000000 -0.3106170000000 1.0  -0.02
Li     1  0.0579340000000 -0.0551240000000  0.3813390000000 1.0  -0.01
Li     1  0.0579340000000  0.3813390000000 -0.0551240000000 1.0  -0.01
Li     1  0.3637960000000 -0.4957080000000 -0.1083750000000 1.0  -0.03
Li     1  0.3637960000000 -0.1083750000000 -0.4957080000000 1.0  -0.03
Li     1 -0.2946220000000  0.1906490000000  0.5722210000000 1.0  -0.00
Li     1 -0.2946220000000  0.5722210000000  0.1906490000000 1.0  -0.00
Li     1 -0.0816180000000 -0.0722380000000 -0.3595150000000 1.0   0.02
Li     1 -0.0816180000000 -0.3595150000000 -0.0722380000000 1.0   0.02
O      2  0.4263310000000 -0.0522410000000 -0.3499500000000 1.0   0.32
O      2  0.4263310000000 -0.3499500000000 -0.0522410000000 1.0   0.32
O      2  0.0557300000000  0.2001500000000 -0.1481010000000 1.0   0.23
O      2  0.0557300000000 -0.1481010000000  0.2001500000000 1.0   0.23
O      2  0.1803410000000  0.5168570000000  0.1349010000000 1.0   0.01
O      2  0.1803410000000  0.1349010000000  0.5168570000000 1.0   0.01
S      3 -0.1856080000000 -0.1684790000000  0.3841930000000 1.0   0.01
S      3 -0.1856080000000  0.3841930000000 -0.1684790000000 1.0   0.01
Fe     4 -0.4705130000000  0.1414500000000 -0.1955180000000 1.0   3.56
Fe     4 -0.4705130000000 -0.1955180000000  0.1414500000000 1.0   3.56
END
