TITL LFSO-Li2Fe2S2O-200913-133356-00e9ef -0.0658 319.498268 -6.34304899E+003 -7.95350 8.70116 14 (Pm) n - 1
REM
REM Run started: Mon, 14 Sep 2020 06:59:12 +0100 in /lustre/scratch/uccabz1/launch_tmp/launcher_2020-09-13-20-30-22-116485
REM CASTEP 20.1 from code version af48c487+ pr-geom-scf-spinfix Tue Jun 2 15:39:59 2020 +0100
REM Functional Perdew Burke Ernzerhof Relativity Koelling-Harmon Dispersion off
REM Cut-off 340.0000 eV Grid scale 1.7500 Gmax 16.5316 1/A FBSC none
REM MP grid 3 3 3 Offset 0.000 0.000 0.000 No. kpts 10 Spacing 0.07
REM Total runtime: 66563.1 s
REM Overall efficiency: 82.75 %
REM
REM
REM
REM compiler GCC version 4.9.2
REM options -cpp -iprefix /lustre/shared/ucl/apps/gcc/4.9.2/bin/../lib/gcc/x86_64-unknown-linux-gnu/4.9.2/ -mtune=corei7 -march=x86-64 -g -Og
REM COMMAND_LINE
REM seed -664585698 -1423632714 1569697004 -1351426728 -405690884 1968355583 -1182316586 1121367315 916082410 -1632470831 -1233128337 -1342640830
REM
REM S 3|1.8|5|6|7|30:31:32(qc=5)
REM O 2|1.5|12|13|15|20:21(qc=5)
REM Li 1|1.3|8|9|10|10U:20(qc=5)
REM Fe 3|2.2|2.0|1.0|8|9|10|40:41:32(qc=5)
REM 
CELL 1.54180    7.68312    8.38384    6.23174   90.00000   90.00000  127.25622
LATT -1
SFAC Li O  S  Fe 
Li     1 -0.1232680000000 -0.0873230000000 -0.2475880000000 1.0  -0.01
Li     1 -0.1232680000000 -0.0873230000000  0.2475880000000 1.0  -0.01
Li     1  0.2422980000000 -0.1325410000000  0.0000000000000 1.0  -0.03
Li     1  0.2730060000000  0.0872830000000  0.5000000000000 1.0   0.02
O      2  0.1652900000000 -0.0021040000000 -0.2178070000000 1.0  -0.25
O      2  0.1652900000000 -0.0021040000000  0.2178070000000 1.0  -0.25
S      3 -0.3927630000000  0.4449950000000  0.0000000000000 1.0  -0.02
S      3  0.1088130000000 -0.6693080000000  0.0000000000000 1.0  -0.06
S      3 -0.3319380000000 -0.0365260000000 -0.5000000000000 1.0  -0.05
S      3 -0.4690150000000 -0.2165040000000  0.0000000000000 1.0   0.01
Fe     4  0.4148240000000 -0.4847960000000  0.1946340000000 1.0  -1.32
Fe     4  0.4148240000000 -0.4847960000000 -0.1946340000000 1.0  -1.32
Fe     4  0.2600420000000  0.1741980000000  0.0000000000000 1.0  -2.52
Fe     4  0.4399490000000 -0.3453640000000  0.5000000000000 1.0  -2.14
END
