TITL LFSO-Li3Fe3S2O4-200928-153340-f2b353 0.0551 383.479933 -1.10996521E+004 -18.1715 18.8807 24 (Pc) n - 1
REM
REM Run started: Tue, 29 Sep 2020 17:25:20 +0100 in /scratch/scratch/uccabz1/launch_tmp/launcher_2020-09-28-14-33-38-855636
REM CASTEP 19.11| from code version Version unavailable
REM Functional Perdew Burke Ernzerhof Relativity Koelling-Harmon Dispersion off
REM Cut-off 340.0000 eV Grid scale 1.7500 Gmax 16.5316 1/A FBSC none
REM MP grid 3 2 2 Offset 0.000 0.000 0.000 No. kpts 3 Spacing 0.07
REM Total runtime: 55095.4 s
REM Overall efficiency: 96.8182 %
REM
REM
REM
REM compiler GCC version 4.9.2
REM options -cpp -iprefix /scratch/UCL/applications/gcc/4.9.2/bin/../lib/gcc/x86_64-unknown-linux-gnu/4.9.2/ -mtune=corei7 -march=x86-64 -g -O2
REM COMMAND_LINE
REM seed -1076707076 1505489956 1947982246 1325030736 -1126176746 1119334631 -957346294 -1900685000 1567531611 -633609547 63321783 1574476639
REM
REM S 3|1.8|5|6|7|30:31:32(qc=5)
REM O 2|1.5|12|13|15|20:21(qc=5)
REM Li 1|1.3|8|9|10|10U:20(qc=5)
REM Fe 3|2.2|2.0|1.0|8|9|10|40:41:32(qc=5)
REM 
CELL 1.54180    5.42143    8.11220    8.95682   90.00000   90.00000   76.78042
LATT -1
SFAC Li O  S  Fe 
Li     1 -0.5474190000000 -0.4592830000000  0.2608580000000 1.0   0.01
Li     1 -0.5474190000000  0.0407170000000 -0.2608580000000 1.0   0.01
Li     1  0.0455400000000  0.3573570000000  0.3431420000000 1.0  -0.02
Li     1  0.0455400000000 -0.1426430000000 -0.3431420000000 1.0  -0.02
Li     1 -0.5178780000000  0.0139450000000  0.2421920000000 1.0  -0.00
Li     1 -0.5178780000000 -0.4860550000000 -0.2421920000000 1.0  -0.00
O      2 -0.3040870000000 -0.0931410000000 -0.4082060000000 1.0  -0.19
O      2 -0.3040870000000  0.4068590000000  0.4082060000000 1.0  -0.19
O      2 -0.3881930000000 -0.2467160000000  0.3059640000000 1.0  -0.13
O      2 -0.3881930000000  0.2532840000000 -0.3059640000000 1.0  -0.13
O      2  0.1034640000000  0.0297050000000 -0.1938870000000 1.0  -0.29
O      2  0.1034640000000 -0.4702950000000  0.1938870000000 1.0  -0.29
O      2 -0.6385270000000 -0.3021700000000 -0.3803540000000 1.0  -0.15
O      2 -0.6385270000000  0.1978300000000  0.3803540000000 1.0  -0.15
S      3 -0.3378420000000 -0.1408980000000 -0.0392520000000 1.0  -0.22
S      3 -0.3378420000000  0.3591020000000  0.0392520000000 1.0  -0.22
S      3  0.0459450000000 -0.5491590000000 -0.2246290000000 1.0  -0.26
S      3  0.0459450000000 -0.0491590000000  0.2246290000000 1.0  -0.26
Fe     4 -0.1338520000000  0.2385910000000 -0.1595380000000 1.0  -2.75
Fe     4 -0.1338520000000 -0.2614090000000  0.1595380000000 1.0  -2.75
Fe     4  0.0020840000000  0.4551170000000  0.0155060000000 1.0  -2.83
Fe     4  0.0020840000000 -0.0448830000000 -0.0155060000000 1.0  -2.83
Fe     4 -0.4351090000000  0.2653970000000 -0.5036960000000 1.0  -2.27
Fe     4 -0.4351090000000 -0.2346030000000  0.5036960000000 1.0  -2.27
END
