TITL LFSO-Li4FeSO2-200910-075307-f45bb0 0.0215 139.999181 -2.83738797E+003 4.62064 4.83918 8 (Pmmm) n - 1
REM
REM Run started: Thu, 10 Sep 2020 10:15:10 +0100 in /lustre/scratch/uccabz1/launch_tmp/launcher_2020-09-10-06-53-05-095612
REM CASTEP 20.1 from code version af48c487+ pr-geom-scf-spinfix Tue Jun 2 15:39:59 2020 +0100
REM Functional Perdew Burke Ernzerhof Relativity Koelling-Harmon Dispersion off
REM Cut-off 340.0000 eV Grid scale 1.7500 Gmax 16.5316 1/A FBSC none
REM MP grid 6 3 2 Offset 0.000 0.000 0.000 No. kpts 6 Spacing 0.07
REM Total runtime: 7071.95 s
REM Overall efficiency: 93.7143 %
REM
REM
REM
REM compiler GCC version 4.9.2
REM options -cpp -iprefix /lustre/shared/ucl/apps/gcc/4.9.2/bin/../lib/gcc/x86_64-unknown-linux-gnu/4.9.2/ -mtune=corei7 -march=x86-64 -g -Og
REM COMMAND_LINE
REM seed -1219480199 -254574802 -1065971299 186664567 -439589131 678968610 -2002689718 -1637961413 948876151 -1921196730 -1145830462 -612650950
REM
REM S 3|1.8|5|6|7|30:31:32(qc=5)
REM O 2|1.5|12|13|15|20:21(qc=5)
REM Li 1|1.3|8|9|10|10U:20(qc=5)
REM Fe 3|2.2|2.0|1.0|8|9|10|40:41:32(qc=5)
REM 
CELL 1.54180    2.60521    5.32209   10.09718   90.00000   90.00000   90.00000
LATT -1
SFAC Li O  S  Fe 
Li     1 -0.0000000000000  0.2222360000000 -0.3239770000000 1.0  -0.06
Li     1  0.0000000000000  0.2222360000000  0.3239770000000 1.0  -0.06
Li     1  0.0000000000000 -0.2222360000000  0.3239770000000 1.0  -0.06
Li     1 -0.0000000000000 -0.2222360000000 -0.3239770000000 1.0  -0.06
O      2  0.5000000000000  0.0000000000000  0.2765310000000 1.0   0.56
O      2 -0.5000000000000  0.0000000000000 -0.2765310000000 1.0   0.56
S      3 -0.5000000000000  0.5000000000000  0.5000000000000 1.0   0.17
Fe     4  0.0000000000000 -0.5000000000000  0.0000000000000 1.0   3.57
END
