TITL LFSO-Li3Fe3SO5-201001-221042-515cbb -0.0560 584.032105 -1.13641158E+004 0.190755 14.7137 24 (P1) n - 1
REM
REM Run started: Fri, 02 Oct 2020 10:40:21 +0100 in /scratch/scratch/mmm0366/launch_tmp/launcher_2020-10-02-08-26-25-673027
REM CASTEP 19.11| from code version Version unavailable
REM Functional Perdew Burke Ernzerhof Relativity Koelling-Harmon Dispersion off
REM Cut-off 340.0000 eV Grid scale 1.7500 Gmax 16.5316 1/A FBSC none
REM MP grid 3 3 2 Offset 0.000 0.000 0.000 No. kpts 5 Spacing 0.07
REM Total runtime: 51008.1 s
REM Overall efficiency: 65.4545 %
REM
REM
REM
REM compiler GCC version 4.9.2
REM options -cpp -iprefix /lustre/shared/ucl/apps/gcc/4.9.2/bin/../lib/gcc/x86_64-unknown-linux-gnu/4.9.2/ -mtune=corei7 -march=x86-64 -g -Og
REM COMMAND_LINE
REM seed 1268024911 -1363930854 -847810254 1121215189 -2025047193 560036147 -135131911 -1357462917 1361735592 443597276 -1506486488 842755951
REM
REM S 3|1.8|5|6|7|30:31:32(qc=5)
REM O 2|1.5|12|13|15|20:21(qc=5)
REM Li 1|1.3|8|9|10|10U:20(qc=5)
REM Fe 3|2.2|2.0|1.0|8|9|10|40:41:32(qc=5)
REM 
CELL 1.54180    6.17229    7.62936   14.00208   90.00000   90.00000  117.65644
LATT -1
SFAC Li O  S  Fe 
Li     1 -0.0939790000000 -0.0567190000000 -0.1784690000000 1.0  -0.02
Li     1 -0.0939790000000 -0.0567190000000  0.1784690000000 1.0  -0.02
Li     1  0.0007320000000 -0.2949600000000  0.3254780000000 1.0  -0.01
Li     1  0.0007320000000 -0.2949600000000 -0.3254780000000 1.0  -0.01
Li     1  0.3690890000000  0.2547710000000  0.2426510000000 1.0  -0.00
Li     1  0.3690890000000  0.2547710000000 -0.2426510000000 1.0  -0.00
O      2  0.1629980000000 -0.0631410000000 -0.2461860000000 1.0   0.23
O      2  0.1629980000000 -0.0631410000000  0.2461860000000 1.0   0.23
O      2 -0.2776090000000 -0.5389340000000  0.3008070000000 1.0  -0.38
O      2 -0.2776090000000 -0.5389340000000 -0.3008070000000 1.0  -0.38
O      2 -0.4151720000000  0.2948450000000 -0.1299360000000 1.0  -0.02
O      2 -0.4151720000000  0.2948450000000  0.1299360000000 1.0  -0.02
O      2 -0.0672070000000  0.2003650000000 -0.1584070000000 1.0  -0.15
O      2 -0.0672070000000  0.2003650000000  0.1584070000000 1.0  -0.15
O      2 -0.4107190000000 -0.1517610000000 -0.1146360000000 1.0   0.06
O      2 -0.4107190000000 -0.1517610000000  0.1146360000000 1.0   0.06
S      3  0.2438730000000 -0.4465310000000  0.2568770000000 1.0   0.04
S      3  0.2438730000000 -0.4465310000000 -0.2568770000000 1.0   0.04
Fe     4 -0.3555030000000  0.0967530000000  0.0942310000000 1.0   0.17
Fe     4 -0.3555030000000  0.0967530000000 -0.0942310000000 1.0   0.17
Fe     4 -0.1461560000000  0.3836720000000 -0.2129250000000 1.0  -2.69
Fe     4 -0.1461560000000  0.3836720000000  0.2129250000000 1.0  -2.69
Fe     4  0.3318560000000 -0.1662380000000  0.1859260000000 1.0   2.87
Fe     4  0.3318560000000 -0.1662380000000 -0.1859260000000 1.0   2.87
END
