TITL LFSO-Li4Fe2S4O-200910-205121-a8cec9 0.0508 517.946783 -8.36108562E+003 12.0000 13.0734 22 (Pnc2) n - 1
REM
REM Run started: Fri, 11 Sep 2020 04:36:17 +0100 in /lustre/scratch/uccabz1/launch_tmp/launcher_2020-09-10-19-51-20-038466
REM CASTEP 20.1 from code version af48c487+ pr-geom-scf-spinfix Tue Jun 2 15:39:59 2020 +0100
REM Functional Perdew Burke Ernzerhof Relativity Koelling-Harmon Dispersion off
REM Cut-off 340.0000 eV Grid scale 1.7500 Gmax 16.5316 1/A FBSC none
REM MP grid 2 3 2 Offset 0.000 0.000 0.000 No. kpts 2 Spacing 0.07
REM Total runtime: 30019.6 s
REM Overall efficiency: 87.1538 %
REM
REM
REM
REM compiler GCC version 4.9.2
REM options -cpp -iprefix /lustre/shared/ucl/apps/gcc/4.9.2/bin/../lib/gcc/x86_64-unknown-linux-gnu/4.9.2/ -mtune=corei7 -march=x86-64 -g -Og
REM COMMAND_LINE
REM seed -1599448907 -1371301234 1182354523 -128109316 -2062912061 1730255005 -1683786050 -1566717334 2056568077 686590108 -310719912 -242131528
REM
REM S 3|1.8|5|6|7|30:31:32(qc=5)
REM O 2|1.5|12|13|15|20:21(qc=5)
REM Li 1|1.3|8|9|10|10U:20(qc=5)
REM Fe 3|2.2|2.0|1.0|8|9|10|40:41:32(qc=5)
REM 
CELL 1.54180    9.60246    6.37401    8.46233   90.00000   90.00000   90.00000
LATT -1
SFAC Li O  S  Fe 
Li     1 -0.1680070000000  0.2977550000000  0.1006830000000 1.0   0.03
Li     1 -0.1680070000000 -0.2977550000000 -0.1006830000000 1.0   0.03
Li     1  0.3319930000000  0.2022450000000  0.1006830000000 1.0   0.03
Li     1  0.3319930000000 -0.2022450000000 -0.1006830000000 1.0   0.03
Li     1 -0.3691490000000 -0.4645180000000 -0.3332040000000 1.0  -0.01
Li     1 -0.3691490000000  0.4645180000000  0.3332040000000 1.0  -0.01
Li     1  0.1308510000000 -0.0354820000000 -0.3332040000000 1.0  -0.01
Li     1  0.1308510000000  0.0354820000000  0.3332040000000 1.0  -0.01
O      2  0.2628000000000  0.0000000000000  0.5000000000000 1.0   0.21
O      2 -0.2372000000000 -0.5000000000000 -0.5000000000000 1.0   0.21
S      3  0.3827990000000 -0.4071430000000 -0.3404760000000 1.0  -0.02
S      3  0.3827990000000  0.4071430000000  0.3404760000000 1.0  -0.02
S      3 -0.1172010000000 -0.0928570000000 -0.3404760000000 1.0  -0.02
S      3 -0.1172010000000  0.0928570000000  0.3404760000000 1.0  -0.02
S      3 -0.2229210000000 -0.3364750000000  0.1717820000000 1.0   0.15
S      3 -0.2229210000000  0.3364750000000 -0.1717820000000 1.0   0.15
S      3  0.2770790000000 -0.1635250000000  0.1717820000000 1.0   0.15
S      3  0.2770790000000  0.1635250000000 -0.1717820000000 1.0   0.15
Fe     4  0.3256120000000 -0.2565490000000  0.4178530000000 1.0   2.75
Fe     4  0.3256120000000  0.2565490000000 -0.4178530000000 1.0   2.75
Fe     4 -0.1743880000000 -0.2434510000000  0.4178530000000 1.0   2.75
Fe     4 -0.1743880000000  0.2434510000000 -0.4178530000000 1.0   2.75
END
