TITL LFSO-LiFe3S2O3-200909-171838-60011e -0.0413 135.066689 -4.70915874E+003 8.98236 9.29166 9 (P3) n - 1
REM
REM Run started: Wed, 09 Sep 2020 18:55:52 +0100 in /lustre/scratch/uccabz1/launch_tmp/launcher_2020-09-09-16-18-36-566891
REM CASTEP 20.1 from code version af48c487+ pr-geom-scf-spinfix Tue Jun 2 15:39:59 2020 +0100
REM Functional Perdew Burke Ernzerhof Relativity Koelling-Harmon Dispersion off
REM Cut-off 340.0000 eV Grid scale 1.7500 Gmax 16.5316 1/A FBSC none
REM MP grid 4 4 3 Offset 0.000 0.000 0.000 No. kpts 24 Spacing 0.07
REM Total runtime: 6101.81 s
REM Overall efficiency: 96.1429 %
REM
REM
REM
REM compiler GCC version 4.9.2
REM options -cpp -iprefix /lustre/shared/ucl/apps/gcc/4.9.2/bin/../lib/gcc/x86_64-unknown-linux-gnu/4.9.2/ -mtune=corei7 -march=x86-64 -g -Og
REM COMMAND_LINE
REM seed -744282912 -1849616111 -1097966960 -1934474457 -991778273 -1574319772 -208898262 -852267888 1647781731 1967476912 -1867451203 1515231090
REM
REM S 3|1.8|5|6|7|30:31:32(qc=5)
REM O 2|1.5|12|13|15|20:21(qc=5)
REM Li 1|1.3|8|9|10|10U:20(qc=5)
REM Fe 3|2.2|2.0|1.0|8|9|10|40:41:32(qc=5)
REM 
CELL 1.54180    4.69365    4.69365    7.07939   90.00000   90.00000  120.00000
LATT -1
SFAC Li O  S  Fe 
Li     1 -0.3333330000000  0.3333330000000 -0.3121220000000 1.0   0.02
O      2  0.0286070000000 -0.3327040000000 -0.4420160000000 1.0   0.05
O      2  0.3327040000000  0.3613110000000 -0.4420160000000 1.0   0.05
O      2 -0.3613110000000 -0.0286070000000 -0.4420160000000 1.0   0.05
S      3  0.3333330000000 -0.3333330000000  0.4868440000000 1.0   0.01
S      3  0.0000000000000 -0.0000000000000  0.0023990000000 1.0   0.15
Fe     4  0.0088090000000 -0.3366280000000  0.2242970000000 1.0   2.88
Fe     4  0.3366280000000  0.3454370000000  0.2242970000000 1.0   2.88
Fe     4 -0.3454370000000 -0.0088090000000  0.2242970000000 1.0   2.88
END
