TITL LFSO-LiFe3S2O3-200909-160714-153b95 0.0696 326.293898 -9.42515839E+003 0.265774E-02 21.2333 18 (P3) n - 1
REM
REM Run started: Thu, 10 Sep 2020 19:28:30 +0100 in /lustre/scratch/uccabz1/launch_tmp/launcher_2020-09-09-15-07-12-858230
REM CASTEP 20.1 from code version af48c487+ pr-geom-scf-spinfix Tue Jun 2 15:39:59 2020 +0100
REM Functional Perdew Burke Ernzerhof Relativity Koelling-Harmon Dispersion off
REM Cut-off 340.0000 eV Grid scale 1.7500 Gmax 16.5316 1/A FBSC none
REM MP grid 3 2 2 Offset 0.000 0.000 0.000 No. kpts 6 Spacing 0.07
REM Total runtime: 104119 s
REM Overall efficiency: 93.9167 %
REM
REM
REM
REM compiler GCC version 4.9.2
REM options -cpp -iprefix /lustre/shared/ucl/apps/gcc/4.9.2/bin/../lib/gcc/x86_64-unknown-linux-gnu/4.9.2/ -mtune=corei7 -march=x86-64 -g -Og
REM COMMAND_LINE
REM seed 1484588498 936711528 611032189 1137603725 1064033948 2083918042 -1768465216 -2057970711 1413969952 -937308602 1729422741 1617807692
REM
REM S 3|1.8|5|6|7|30:31:32(qc=5)
REM O 2|1.5|12|13|15|20:21(qc=5)
REM Li 1|1.3|8|9|10|10U:20(qc=5)
REM Fe 3|2.2|2.0|1.0|8|9|10|40:41:32(qc=5)
REM 
CELL 1.54180    5.14681    8.55599    8.55599  120.00000   90.00000   90.00000
LATT -1
SFAC Li O  S  Fe 
Li     1 -0.2171620000000  0.3333330000000 -0.3333330000000 1.0   0.03
Li     1  0.3187510000000 -0.3333330000000  0.3333330000000 1.0   0.04
O      2  0.4745390000000  0.1322990000000 -0.3563960000000 1.0   0.14
O      2  0.4745390000000 -0.4886950000000 -0.1322990000000 1.0   0.14
O      2  0.4745390000000  0.3563960000000  0.4886950000000 1.0   0.14
O      2 -0.0348310000000  0.1108160000000 -0.5270980000000 1.0  -0.03
O      2 -0.0348310000000 -0.6379140000000 -0.1108160000000 1.0  -0.03
O      2 -0.0348310000000  0.5270980000000  0.6379140000000 1.0  -0.03
S      3 -0.5444670000000 -0.1060120000000  0.2151610000000 1.0  -0.02
S      3 -0.5444670000000  0.3211730000000  0.1060120000000 1.0  -0.02
S      3 -0.5444670000000 -0.2151610000000 -0.3211730000000 1.0  -0.02
S      3 -0.1445880000000 -0.3333330000000  0.3333330000000 1.0  -0.17
Fe     4  0.2987280000000 -0.4416670000000 -0.3009870000000 1.0   3.28
Fe     4  0.2987280000000  0.1406800000000  0.4416670000000 1.0   3.28
Fe     4  0.2987280000000  0.3009870000000 -0.1406800000000 1.0   3.28
Fe     4 -0.3025830000000 -0.5118520000000  0.0345660000000 1.0  -3.33
Fe     4 -0.3025830000000 -0.4535820000000  0.5118520000000 1.0  -3.33
Fe     4 -0.3025830000000 -0.0345660000000  0.4535820000000 1.0  -3.33
END
