TITL LFSO-Li4Fe2S3O2-200911-044820-04d43b 0.0216 191.754646 -4.31163330E+003 6.02698 6.34189 11 (Cmm2) n - 1
REM
REM Run started: Fri, 11 Sep 2020 07:30:14 +0100 in /lustre/scratch/uccabz1/launch_tmp/launcher_2020-09-11-03-48-18-471138
REM CASTEP 20.1 from code version af48c487+ pr-geom-scf-spinfix Tue Jun 2 15:39:59 2020 +0100
REM Functional Perdew Burke Ernzerhof Relativity Koelling-Harmon Dispersion off
REM Cut-off 340.0000 eV Grid scale 1.7500 Gmax 16.5316 1/A FBSC none
REM MP grid 3 3 3 Offset 0.000 0.000 0.000 No. kpts 8 Spacing 0.07
REM Total runtime: 9750.99 s
REM Overall efficiency: 94.4167 %
REM
REM
REM
REM compiler GCC version 4.9.2
REM options -cpp -iprefix /lustre/shared/ucl/apps/gcc/4.9.2/bin/../lib/gcc/x86_64-unknown-linux-gnu/4.9.2/ -mtune=corei7 -march=x86-64 -g -Og
REM COMMAND_LINE
REM seed 1760642230 -576940257 1197361691 1275709573 -2100828983 777552336 -29382857 1410455245 1103926656 133556125 -1156950015 -1821513067
REM
REM S 3|1.8|5|6|7|30:31:32(qc=5)
REM O 2|1.5|12|13|15|20:21(qc=5)
REM Li 1|1.3|8|9|10|10U:20(qc=5)
REM Fe 3|2.2|2.0|1.0|8|9|10|40:41:32(qc=5)
REM 
CELL 1.54180    4.77482    6.71469    6.71469  117.03704   90.00000   90.00000
LATT -1
SFAC Li O  S  Fe 
Li     1 -0.3545720000000 -0.1293010000000 -0.3724170000000 1.0  -0.01
Li     1 -0.3545720000000  0.1293010000000  0.3724170000000 1.0  -0.01
Li     1 -0.3545720000000 -0.3724170000000 -0.1293010000000 1.0  -0.01
Li     1 -0.3545720000000  0.3724170000000  0.1293010000000 1.0  -0.01
O      2 -0.1037180000000  0.1868440000000  0.1868440000000 1.0   0.21
O      2 -0.1037180000000 -0.1868440000000 -0.1868440000000 1.0   0.21
S      3  0.1069850000000  0.0000000000000 -0.5000000000000 1.0   0.10
S      3  0.1069850000000  0.5000000000000  0.0000000000000 1.0   0.10
S      3 -0.5681560000000  0.0000000000000  0.0000000000000 1.0   0.08
Fe     4  0.0544430000000 -0.1092100000000  0.1092100000000 1.0   2.68
Fe     4  0.0544430000000  0.1092100000000 -0.1092100000000 1.0   2.68
END
