TITL LFSO-Li4Fe3S2O3-201001-102117-45db12 0.0393 405.791879 -1.06161451E+004 -13.2606 14.1137 24 (P4) n - 1
REM
REM Run started: Thu, 01 Oct 2020 15:39:00 +0100 in /lustre/scratch/uccabz1/launch_tmp/launcher_2020-10-01-09-21-16-326943
REM CASTEP 20.1 from code version af48c487+ pr-geom-scf-spinfix Tue Jun 2 15:39:59 2020 +0100
REM Functional Perdew Burke Ernzerhof Relativity Koelling-Harmon Dispersion off
REM Cut-off 340.0000 eV Grid scale 1.7500 Gmax 16.5316 1/A FBSC none
REM MP grid 3 3 2 Offset 0.000 0.000 0.000 No. kpts 3 Spacing 0.07
REM Total runtime: 20139.4 s
REM Overall efficiency: 79 %
REM
REM
REM
REM compiler GCC version 4.9.2
REM options -cpp -iprefix /lustre/shared/ucl/apps/gcc/4.9.2/bin/../lib/gcc/x86_64-unknown-linux-gnu/4.9.2/ -mtune=corei7 -march=x86-64 -g -Og
REM COMMAND_LINE
REM seed 265450779 1786581619 -737120740 -111363379 633280100 -639341912 -1980200568 -832989370 -276994056 1269949787 647429454 1764566374
REM
REM S 3|1.8|5|6|7|30:31:32(qc=5)
REM O 2|1.5|12|13|15|20:21(qc=5)
REM Li 1|1.3|8|9|10|10U:20(qc=5)
REM Fe 3|2.2|2.0|1.0|8|9|10|40:41:32(qc=5)
REM 
CELL 1.54180    6.84568    6.84568    8.65905   90.00000   90.00000   90.00000
LATT -1
SFAC Li O  S  Fe 
Li     1  0.4195940000000 -0.1911580000000 -0.4689840000000 1.0   0.03
Li     1 -0.4195940000000  0.1911580000000 -0.4689840000000 1.0   0.03
Li     1 -0.1911580000000 -0.4195940000000 -0.4689840000000 1.0   0.03
Li     1  0.1911580000000  0.4195940000000 -0.4689840000000 1.0   0.03
Li     1  0.1934030000000 -0.3329720000000  0.0263570000000 1.0  -0.02
Li     1 -0.1934030000000  0.3329720000000  0.0263570000000 1.0  -0.02
Li     1 -0.3329720000000 -0.1934030000000  0.0263570000000 1.0  -0.02
Li     1  0.3329720000000  0.1934030000000  0.0263570000000 1.0  -0.02
O      2  0.1526600000000  0.3906770000000 -0.0446460000000 1.0  -0.19
O      2 -0.1526600000000 -0.3906770000000 -0.0446460000000 1.0  -0.19
O      2  0.3906770000000 -0.1526600000000 -0.0446460000000 1.0  -0.19
O      2 -0.3906770000000  0.1526600000000 -0.0446460000000 1.0  -0.19
O      2  0.0000000000000  0.5000000000000  0.3475860000000 1.0  -0.13
O      2 -0.5000000000000  0.0000000000000  0.3475860000000 1.0  -0.13
S      3  0.2941350000000  0.1257670000000 -0.3474880000000 1.0  -0.00
S      3 -0.2941350000000 -0.1257670000000 -0.3474880000000 1.0  -0.00
S      3  0.1257670000000 -0.2941350000000 -0.3474880000000 1.0  -0.00
S      3 -0.1257670000000  0.2941350000000 -0.3474880000000 1.0  -0.00
Fe     4 -0.2384380000000 -0.0504960000000  0.3997700000000 1.0  -2.35
Fe     4  0.2384380000000  0.0504960000000  0.3997700000000 1.0  -2.35
Fe     4 -0.0504960000000  0.2384380000000  0.3997700000000 1.0  -2.35
Fe     4  0.0504960000000 -0.2384380000000  0.3997700000000 1.0  -2.35
Fe     4  0.5000000000000  0.0000000000000 -0.1783480000000 1.0  -1.42
Fe     4  0.0000000000000 -0.5000000000000 -0.1783480000000 1.0  -1.42
END
