TITL LFSO-Li4Fe3S3O2-200927-054905-726b96 0.0143 202.313616 -5.17417598E+003 10.2894 10.6393 12 (P3) n - 1
REM
REM Run started: Sun, 27 Sep 2020 08:24:58 +0100 in /lustre/scratch/uccabz1/launch_tmp/launcher_2020-09-27-06-02-15-401982
REM CASTEP 20.1 from code version af48c487+ pr-geom-scf-spinfix Tue Jun 2 15:39:59 2020 +0100
REM Functional Perdew Burke Ernzerhof Relativity Koelling-Harmon Dispersion off
REM Cut-off 340.0000 eV Grid scale 1.7500 Gmax 16.5316 1/A FBSC none
REM MP grid 3 3 3 Offset 0.000 0.000 0.000 No. kpts 8 Spacing 0.07
REM Total runtime: 7695.51 s
REM Overall efficiency: 96.1538 %
REM
REM
REM
REM compiler GCC version 4.9.2
REM options -cpp -iprefix /lustre/shared/ucl/apps/gcc/4.9.2/bin/../lib/gcc/x86_64-unknown-linux-gnu/4.9.2/ -mtune=corei7 -march=x86-64 -g -Og
REM COMMAND_LINE
REM seed 915381148 -1432766677 425062257 646312080 858220817 634637673 891131337 379448436 -1152835034 1779982200 -17500328 197956157
REM
REM S 3|1.8|5|6|7|30:31:32(qc=5)
REM O 2|1.5|12|13|15|20:21(qc=5)
REM Li 1|1.3|8|9|10|10U:20(qc=5)
REM Fe 3|2.2|2.0|1.0|8|9|10|40:41:32(qc=5)
REM 
CELL 1.54180    6.19971    6.19971    6.07787   90.00000   90.00000  120.00000
LATT -1
SFAC Li O  S  Fe 
Li     1  0.3903500000000  0.4438550000000 -0.1791750000000 1.0  -0.04
Li     1 -0.4438550000000 -0.0535040000000 -0.1791750000000 1.0  -0.04
Li     1  0.0535040000000 -0.3903500000000 -0.1791750000000 1.0  -0.04
Li     1 -0.0000000000000  0.0000000000000  0.1536950000000 1.0   0.03
O      2  0.3333330000000 -0.3333330000000 -0.3349990000000 1.0   0.20
O      2 -0.0000000000000  0.0000000000000  0.4728150000000 1.0   0.20
S      3  0.5439180000000  0.0217830000000  0.1917050000000 1.0   0.15
S      3 -0.0217830000000  0.5221360000000  0.1917050000000 1.0   0.15
S      3 -0.5221360000000 -0.5439180000000  0.1917050000000 1.0   0.15
Fe     4 -0.3793520000000 -0.2137750000000 -0.5745720000000 1.0   3.18
Fe     4  0.2137750000000 -0.1655760000000 -0.5745720000000 1.0   3.18
Fe     4  0.1655760000000  0.3793520000000 -0.5745720000000 1.0   3.18
END
