TITL LFSO-Li2Fe2S2O-200913-131624-8a0b84 0.0138 398.787992 -9.51671675E+003 -19.9906 20.4943 21 (R3) n - 1
REM
REM Run started: Sun, 13 Sep 2020 18:04:22 +0100 in /lustre/scratch/uccabz1/launch_tmp/launcher_2020-09-13-12-16-22-144435
REM CASTEP 20.1 from code version af48c487+ pr-geom-scf-spinfix Tue Jun 2 15:39:59 2020 +0100
REM Functional Perdew Burke Ernzerhof Relativity Koelling-Harmon Dispersion off
REM Cut-off 340.0000 eV Grid scale 1.7500 Gmax 16.5316 1/A FBSC none
REM MP grid 2 2 2 Offset 0.000 0.000 0.000 No. kpts 2 Spacing 0.07
REM Total runtime: 17705.1 s
REM Overall efficiency: 85 %
REM
REM
REM
REM compiler GCC version 4.9.2
REM options -cpp -iprefix /lustre/shared/ucl/apps/gcc/4.9.2/bin/../lib/gcc/x86_64-unknown-linux-gnu/4.9.2/ -mtune=corei7 -march=x86-64 -g -Og
REM COMMAND_LINE
REM seed 710577246 1415776931 -1421787724 -1368653148 -1626659196 587103078 -667599233 -1928171254 -1666161752 174875021 578296507 -1643493261
REM
REM S 3|1.8|5|6|7|30:31:32(qc=5)
REM O 2|1.5|12|13|15|20:21(qc=5)
REM Li 1|1.3|8|9|10|10U:20(qc=5)
REM Fe 3|2.2|2.0|1.0|8|9|10|40:41:32(qc=5)
REM 
CELL 1.54180    7.38645    7.38645    7.38645   94.65249   94.65249   94.65249
LATT -1
SFAC Li O  S  Fe 
Li     1  0.3138430000000  0.1356510000000  0.5190670000000 1.0   0.02
Li     1  0.5190670000000  0.3138430000000  0.1356510000000 1.0   0.02
Li     1  0.1356510000000  0.5190670000000  0.3138430000000 1.0   0.02
Li     1 -0.5129270000000 -0.0876990000000 -0.1362630000000 1.0   0.07
Li     1 -0.1362630000000 -0.5129270000000 -0.0876990000000 1.0   0.07
Li     1 -0.0876990000000 -0.1362630000000 -0.5129270000000 1.0   0.07
O      2 -0.3674030000000  0.4688250000000  0.3224390000000 1.0  -0.46
O      2  0.3224390000000 -0.3674030000000  0.4688250000000 1.0  -0.46
O      2  0.4688250000000  0.3224390000000 -0.3674030000000 1.0  -0.46
S      3  0.3495810000000 -0.3611460000000 -0.0057800000000 1.0  -0.16
S      3 -0.0057800000000  0.3495810000000 -0.3611460000000 1.0  -0.16
S      3 -0.3611460000000 -0.0057800000000  0.3495810000000 1.0  -0.16
S      3 -0.0574320000000 -0.2872840000000  0.1697110000000 1.0  -0.07
S      3  0.1697110000000 -0.0574320000000 -0.2872840000000 1.0  -0.07
S      3 -0.2872840000000  0.1697110000000 -0.0574320000000 1.0  -0.07
Fe     4  0.1111540000000 -0.1816160000000 -0.0357200000000 1.0  -2.31
Fe     4 -0.0357200000000  0.1111540000000 -0.1816160000000 1.0  -2.31
Fe     4 -0.1816160000000 -0.0357200000000  0.1111540000000 1.0  -2.31
Fe     4  0.5078200000000 -0.3192240000000  0.3123330000000 1.0  -3.75
Fe     4  0.3123330000000  0.5078200000000 -0.3192240000000 1.0  -3.75
Fe     4 -0.3192240000000  0.3123330000000  0.5078200000000 1.0  -3.75
END
