TITL LFSO-Li2Fe3S3O-200912-182737-4e7594 -0.0661 239.735310 -4.33840106E+003 -9.25553 9.78378 9 (Pm) n - 1
REM
REM Run started: Sat, 12 Sep 2020 23:37:51 +0100 in /lustre/scratch/uccabz1/launch_tmp/launcher_2020-09-12-17-27-35-846520
REM CASTEP 20.1 from code version af48c487+ pr-geom-scf-spinfix Tue Jun 2 15:39:59 2020 +0100
REM Functional Perdew Burke Ernzerhof Relativity Koelling-Harmon Dispersion off
REM Cut-off 340.0000 eV Grid scale 1.7500 Gmax 16.5316 1/A FBSC none
REM MP grid 5 3 2 Offset 0.000 0.000 0.000 No. kpts 10 Spacing 0.07
REM Total runtime: 21419.3 s
REM Overall efficiency: 80.4167 %
REM
REM
REM
REM compiler GCC version 4.9.2
REM options -cpp -iprefix /lustre/shared/ucl/apps/gcc/4.9.2/bin/../lib/gcc/x86_64-unknown-linux-gnu/4.9.2/ -mtune=corei7 -march=x86-64 -g -Og
REM COMMAND_LINE
REM seed -545983693 1718729660 17353353 -974821377 -455484560 -1976149154 333206532 -1642960358 -1925748340 -1734860829 -646955969 1127808972
REM
REM S 3|1.8|5|6|7|30:31:32(qc=5)
REM O 2|1.5|12|13|15|20:21(qc=5)
REM Li 1|1.3|8|9|10|10U:20(qc=5)
REM Fe 3|2.2|2.0|1.0|8|9|10|40:41:32(qc=5)
REM 
CELL 1.54180    3.41341    5.60010   15.18503   90.00000  124.31915   90.00000
LATT -1
SFAC Li O  S  Fe 
Li     1  0.1868450000000 -0.2219730000000  0.0458130000000 1.0   0.04
Li     1  0.1868450000000  0.2219730000000  0.0458130000000 1.0   0.04
O      2 -0.2859170000000  0.0000000000000  0.1159080000000 1.0  -0.23
S      3 -0.2872090000000  0.2431250000000 -0.1434330000000 1.0  -0.08
S      3 -0.2872090000000 -0.2431250000000 -0.1434330000000 1.0  -0.08
S      3  0.5432950000000 -0.5000000000000  0.2440770000000 1.0  -0.14
Fe     4  0.0285940000000  0.2098440000000  0.2391580000000 1.0  -3.08
Fe     4  0.0285940000000 -0.2098440000000  0.2391580000000 1.0  -3.08
Fe     4  0.2027660000000 -0.5000000000000 -0.1499370000000 1.0  -2.64
END
