TITL LFSO-Li3Fe3S5O-200929-005801-70bac5 0.0254 446.454746 -1.02916679E+004 15.2298 16.0147 24 (P2) n - 1
REM
REM Run started: Wed, 30 Sep 2020 18:42:59 +0100 in /lustre/scratch/uccabz1/launch_tmp/launcher_2020-09-28-23-57-59-501349
REM CASTEP 20.1 from code version af48c487+ pr-geom-scf-spinfix Tue Jun 2 15:39:59 2020 +0100
REM Functional Perdew Burke Ernzerhof Relativity Koelling-Harmon Dispersion off
REM Cut-off 340.0000 eV Grid scale 1.7500 Gmax 16.5316 1/A FBSC none
REM MP grid 3 3 2 Offset 0.000 0.000 0.000 No. kpts 5 Spacing 0.07
REM Total runtime: 150545 s
REM Overall efficiency: 78.0769 %
REM
REM
REM
REM compiler GCC version 4.9.2
REM options -cpp -iprefix /lustre/shared/ucl/apps/gcc/4.9.2/bin/../lib/gcc/x86_64-unknown-linux-gnu/4.9.2/ -mtune=corei7 -march=x86-64 -g -Og
REM COMMAND_LINE
REM seed 1407822822 -1215546984 -1909812204 -391063190 -860806034 -1551114373 1562571427 1519194570 1162645687 1309079272 85984310 1258038391
REM
REM S 3|1.8|5|6|7|30:31:32(qc=5)
REM O 2|1.5|12|13|15|20:21(qc=5)
REM Li 1|1.3|8|9|10|10U:20(qc=5)
REM Fe 3|2.2|2.0|1.0|8|9|10|40:41:32(qc=5)
REM 
CELL 1.54180    6.64075    6.44126   11.36095   90.00000   90.00000  113.26300
LATT -1
SFAC Li O  S  Fe 
Li     1  0.1888560000000 -0.6422310000000 -0.0414970000000 1.0   0.00
Li     1 -0.1888560000000  0.6422310000000 -0.0414970000000 1.0   0.00
Li     1 -0.3936110000000 -0.1722340000000 -0.4412270000000 1.0  -0.03
Li     1  0.3936110000000  0.1722340000000 -0.4412270000000 1.0  -0.03
Li     1  0.2915540000000 -0.1821090000000  0.1511140000000 1.0   0.01
Li     1 -0.2915540000000  0.1821090000000  0.1511140000000 1.0   0.01
O      2 -0.3157600000000  0.2994580000000  0.5044630000000 1.0   0.07
O      2  0.3157600000000 -0.2994580000000  0.5044630000000 1.0   0.07
S      3 -0.2057040000000  0.2448370000000 -0.0663720000000 1.0   0.19
S      3  0.2057040000000 -0.2448370000000 -0.0663720000000 1.0   0.19
S      3 -0.2506760000000 -0.2551600000000 -0.2486480000000 1.0   0.04
S      3  0.2506760000000  0.2551600000000 -0.2486480000000 1.0   0.04
S      3 -0.1155160000000 -0.1688720000000  0.2648690000000 1.0   0.01
S      3  0.1155160000000  0.1688720000000  0.2648690000000 1.0   0.01
S      3 -0.3365430000000 -0.2075320000000  0.1279830000000 1.0   0.01
S      3  0.3365430000000  0.2075320000000  0.1279830000000 1.0   0.01
S      3 -0.1116370000000  0.2098430000000 -0.4541010000000 1.0   0.01
S      3  0.1116370000000 -0.2098430000000 -0.4541010000000 1.0   0.01
Fe     4 -0.1255630000000  0.1434170000000 -0.2574500000000 1.0   2.12
Fe     4  0.1255630000000 -0.1434170000000 -0.2574500000000 1.0   2.12
Fe     4 -0.4445270000000  0.2027700000000 -0.2060450000000 1.0   2.71
Fe     4  0.4445270000000 -0.2027700000000 -0.2060450000000 1.0   2.71
Fe     4 -0.1889580000000  0.4898800000000 -0.3566740000000 1.0   2.48
Fe     4  0.1889580000000 -0.4898800000000 -0.3566740000000 1.0   2.48
END
