TITL LFSO-Li3Fe3S2O4-200928-192636-78d30d -0.5594 536.191944 -1.10964152E+004 -11.7569 14.6362 24 (C2/c) n - 1
REM
REM Run started: Thu, 01 Oct 2020 01:54:36 +0100 in /lustre/scratch/uccabz1/launch_tmp/launcher_2020-09-30-15-07-03-537445
REM CASTEP 20.1 from code version af48c487+ pr-geom-scf-spinfix Tue Jun 2 15:39:59 2020 +0100
REM Functional Perdew Burke Ernzerhof Relativity Koelling-Harmon Dispersion off
REM Cut-off 340.0000 eV Grid scale 1.7500 Gmax 16.5316 1/A FBSC none
REM MP grid 3 2 2 Offset 0.000 0.000 0.000 No. kpts 5 Spacing 0.07
REM Total runtime: 99284.7 s
REM Overall efficiency: 70.8889 %
REM
REM
REM
REM compiler GCC version 4.9.2
REM options -cpp -iprefix /scratch/UCL/applications/gcc/4.9.2/bin/../lib/gcc/x86_64-unknown-linux-gnu/4.9.2/ -mtune=corei7 -march=x86-64 -g -O2
REM COMMAND_LINE
REM seed -1590805434 -1447773457 -744640263 -1051507613 -172171913 1291843379 -1478754170 2094395503 1298624802 884696759 112086720 1621991936
REM
REM S 3|1.8|5|6|7|30:31:32(qc=5)
REM O 2|1.5|12|13|15|20:21(qc=5)
REM Li 1|1.3|8|9|10|10U:20(qc=5)
REM Fe 3|2.2|2.0|1.0|8|9|10|40:41:32(qc=5)
REM 
CELL 1.54180    5.88338   10.31363   10.31363   59.00086   91.50958   91.50958
LATT -1
SFAC Li O  S  Fe 
Li     1 -0.4193440000000 -0.2239870000000 -0.4044140000000 1.0   0.03
Li     1 -0.0806560000000  0.4044140000000  0.2239870000000 1.0   0.03
Li     1  0.4193440000000  0.2239870000000  0.4044140000000 1.0   0.03
Li     1  0.0806560000000 -0.4044140000000 -0.2239870000000 1.0   0.03
Li     1  0.0000000000000  0.0000000000000 -0.5000000000000 1.0  -0.00
Li     1  0.5000000000000  0.5000000000000  0.0000000000000 1.0  -0.00
O      2 -0.1111460000000  0.2314820000000  0.1660350000000 1.0  -0.12
O      2 -0.3888540000000 -0.1660350000000 -0.2314820000000 1.0  -0.12
O      2  0.1111460000000 -0.2314820000000 -0.1660350000000 1.0  -0.12
O      2  0.3888540000000  0.1660350000000  0.2314820000000 1.0  -0.12
O      2  0.2484860000000  0.4400420000000 -0.0622080000000 1.0  -0.30
O      2  0.2515140000000  0.0622080000000 -0.4400420000000 1.0  -0.30
O      2 -0.2484860000000 -0.4400420000000  0.0622080000000 1.0  -0.30
O      2 -0.2515140000000 -0.0622080000000  0.4400420000000 1.0  -0.30
S      3  0.2546750000000 -0.3566580000000  0.5270290000000 1.0  -0.01
S      3  0.2453250000000 -0.5270290000000  0.3566580000000 1.0  -0.01
S      3 -0.2546750000000  0.3566580000000 -0.5270290000000 1.0  -0.01
S      3 -0.2453250000000  0.5270290000000 -0.3566580000000 1.0  -0.01
Fe     4  0.3277280000000 -0.0952780000000 -0.2730430000000 1.0  -2.67
Fe     4  0.1722720000000  0.2730430000000  0.0952780000000 1.0  -2.67
Fe     4 -0.3277280000000  0.0952780000000  0.2730430000000 1.0  -2.67
Fe     4 -0.1722720000000 -0.2730430000000 -0.0952780000000 1.0  -2.67
Fe     4  0.0000000000000 -0.5000000000000 -0.5000000000000 1.0   0.31
Fe     4  0.5000000000000  0.5000000000000  0.5000000000000 1.0   0.31
END
