TITL LFSO-Li3Fe3S2O4-200929-131306-eec627 -0.0113 150.687991 -5.54683843E+003 9.20713 9.40581 12 (C222) n - 1
REM
REM Run started: Tue, 29 Sep 2020 13:58:16 +0100 in /lustre/scratch/uccabz1/launch_tmp/launcher_2020-09-29-12-13-04-829708
REM CASTEP 20.1 from code version af48c487+ pr-geom-scf-spinfix Tue Jun 2 15:39:59 2020 +0100
REM Functional Perdew Burke Ernzerhof Relativity Koelling-Harmon Dispersion off
REM Cut-off 340.0000 eV Grid scale 1.7500 Gmax 16.5316 1/A FBSC none
REM MP grid 3 3 4 Offset 0.000 0.000 0.000 No. kpts 12 Spacing 0.07
REM Total runtime: 2889.58 s
REM Overall efficiency: 95.4 %
REM
REM
REM
REM compiler GCC version 4.9.2
REM options -cpp -iprefix /lustre/shared/ucl/apps/gcc/4.9.2/bin/../lib/gcc/x86_64-unknown-linux-gnu/4.9.2/ -mtune=corei7 -march=x86-64 -g -Og
REM COMMAND_LINE
REM seed 896291628 -1019260435 1183402690 1074915627 975797770 -471520121 -1880138820 -608003742 1188891644 -186190964 -19708779 -299072120
REM
REM S 3|1.8|5|6|7|30:31:32(qc=5)
REM O 2|1.5|12|13|15|20:21(qc=5)
REM Li 1|1.3|8|9|10|10U:20(qc=5)
REM Fe 3|2.2|2.0|1.0|8|9|10|40:41:32(qc=5)
REM 
CELL 1.54180    5.53965    6.46113    5.30670  127.50059   90.00000   90.00000
LATT -1
SFAC Li O  S  Fe 
Li     1  0.0000000000000 -0.1655560000000 -0.3311110000000 1.0  -0.01
Li     1  0.0000000000000  0.1655560000000  0.3311110000000 1.0  -0.01
Li     1  0.5000000000000  0.5000000000000  0.0000000000000 1.0  -0.04
O      2 -0.2086260000000 -0.2177470000000  0.1379790000000 1.0   0.26
O      2 -0.2086260000000  0.2177470000000 -0.1379790000000 1.0   0.26
O      2  0.2086260000000  0.3557260000000  0.1379790000000 1.0   0.26
O      2  0.2086260000000 -0.3557260000000 -0.1379790000000 1.0   0.26
S      3  0.3308680000000  0.0000000000000 -0.5000000000000 1.0   0.12
S      3 -0.3308680000000  0.5000000000000  0.5000000000000 1.0   0.12
Fe     4  0.5000000000000 -0.1839200000000  0.0000000000000 1.0   2.57
Fe     4 -0.5000000000000  0.1839200000000  0.0000000000000 1.0   2.57
Fe     4  0.0000000000000  0.5000000000000  0.0000000000000 1.0   2.86
END
