TITL LFSO-Li4FeSO2-200910-085537-2996b2 0.0788 115.848948 -2.83896572E+003 4.04286 4.10663 8 (R3) n - 1
REM
REM Run started: Thu, 10 Sep 2020 09:58:28 +0100 in /lustre/scratch/uccabz1/launch_tmp/launcher_2020-09-10-07-55-35-478317
REM CASTEP 20.1 from code version af48c487+ pr-geom-scf-spinfix Tue Jun 2 15:39:59 2020 +0100
REM Functional Perdew Burke Ernzerhof Relativity Koelling-Harmon Dispersion off
REM Cut-off 340.0000 eV Grid scale 1.7500 Gmax 16.5316 1/A FBSC none
REM MP grid 4 4 4 Offset 0.000 0.000 0.000 No. kpts 12 Spacing 0.07
REM Total runtime: 4234.17 s
REM Overall efficiency: 94.7143 %
REM
REM
REM
REM compiler GCC version 4.9.2
REM options -cpp -iprefix /lustre/shared/ucl/apps/gcc/4.9.2/bin/../lib/gcc/x86_64-unknown-linux-gnu/4.9.2/ -mtune=corei7 -march=x86-64 -g -Og
REM COMMAND_LINE
REM seed 457760857 1806800099 -370661879 1446167953 246586445 -1531183946 -1357196071 -752287613 2026024688 -1947074406 -600829300 -1665655593
REM
REM S 3|1.8|5|6|7|30:31:32(qc=5)
REM O 2|1.5|12|13|15|20:21(qc=5)
REM Li 1|1.3|8|9|10|10U:20(qc=5)
REM Fe 3|2.2|2.0|1.0|8|9|10|40:41:32(qc=5)
REM 
CELL 1.54180    6.63604    6.63604    6.63604   41.47922   41.47922   41.47922
LATT -1
SFAC Li O  S  Fe 
Li     1 -0.3341150000000  0.1589610000000 -0.3124080000000 1.0  -0.04
Li     1 -0.3124080000000 -0.3341150000000  0.1589610000000 1.0  -0.04
Li     1  0.1589610000000 -0.3124080000000 -0.3341150000000 1.0  -0.04
Li     1  0.3436340000000  0.3436340000000  0.3436340000000 1.0  -0.04
O      2  0.4458750000000  0.4458750000000  0.4458750000000 1.0   0.13
O      2 -0.2301540000000 -0.2301540000000 -0.2301540000000 1.0   0.19
S      3 -0.0478200000000 -0.0478200000000 -0.0478200000000 1.0   0.17
Fe     4  0.0786300000000  0.0786300000000  0.0786300000000 1.0   3.70
END
