TITL LFSO-Li2Fe4S4O-200911-202017-943c0d -0.0732 202.038776 -5.50720758E+003 13.6384 13.8091 11 (R3) n - 1
REM
REM Run started: Fri, 11 Sep 2020 22:53:48 +0100 in /lustre/scratch/uccabz1/launch_tmp/launcher_2020-09-11-19-20-15-808403
REM CASTEP 20.1 from code version af48c487+ pr-geom-scf-spinfix Tue Jun 2 15:39:59 2020 +0100
REM Functional Perdew Burke Ernzerhof Relativity Koelling-Harmon Dispersion off
REM Cut-off 340.0000 eV Grid scale 1.7500 Gmax 16.5316 1/A FBSC none
REM MP grid 3 3 3 Offset 0.000 0.000 0.000 No. kpts 6 Spacing 0.07
REM Total runtime: 9316.57 s
REM Overall efficiency: 96.125 %
REM
REM
REM
REM compiler GCC version 4.9.2
REM options -cpp -iprefix /lustre/shared/ucl/apps/gcc/4.9.2/bin/../lib/gcc/x86_64-unknown-linux-gnu/4.9.2/ -mtune=corei7 -march=x86-64 -g -Og
REM COMMAND_LINE
REM seed -244706751 899306265 71877088 -1593546784 -692323186 -1539397207 2042868046 -473100015 -774528405 1233357961 656976048 1668336206
REM
REM S 3|1.8|5|6|7|30:31:32(qc=5)
REM O 2|1.5|12|13|15|20:21(qc=5)
REM Li 1|1.3|8|9|10|10U:20(qc=5)
REM Fe 3|2.2|2.0|1.0|8|9|10|40:41:32(qc=5)
REM 
CELL 1.54180    6.15513    6.15513    6.15513   70.98298   70.98298   70.98298
LATT -1
SFAC Li O  S  Fe 
Li     1 -0.3385550000000 -0.3385550000000 -0.3385550000000 1.0   0.02
Li     1  0.3294360000000  0.3294360000000  0.3294360000000 1.0   0.01
O      2 -0.1916510000000 -0.1916510000000 -0.1916510000000 1.0   0.29
S      3 -0.0211000000000  0.3120980000000 -0.3402650000000 1.0   0.19
S      3  0.3120980000000 -0.3402650000000 -0.0211000000000 1.0   0.19
S      3 -0.3402650000000 -0.0211000000000  0.3120980000000 1.0   0.19
S      3  0.1519990000000  0.1519990000000  0.1519990000000 1.0   0.10
Fe     4 -0.1093050000000  0.0530810000000  0.5156740000000 1.0   3.08
Fe     4  0.0530810000000  0.5156740000000 -0.1093050000000 1.0   3.08
Fe     4  0.5156740000000 -0.1093050000000  0.0530810000000 1.0   3.08
Fe     4 -0.0318620000000 -0.0318620000000 -0.0318620000000 1.0   3.40
END
