TITL LFSO-Li2Fe3SO3-200912-153231-f5ce5e 0.0499 114.938823 -4.60097938E+003 0.245810 1.67797 9 (Pmmm) n - 1
REM
REM Run started: Sat, 12 Sep 2020 16:57:21 +0100 in /lustre/scratch/uccabz1/launch_tmp/launcher_2020-09-12-14-32-29-664380
REM CASTEP 20.1 from code version af48c487+ pr-geom-scf-spinfix Tue Jun 2 15:39:59 2020 +0100
REM Functional Perdew Burke Ernzerhof Relativity Koelling-Harmon Dispersion off
REM Cut-off 340.0000 eV Grid scale 1.7500 Gmax 16.5316 1/A FBSC none
REM MP grid 5 6 2 Offset 0.000 0.000 0.000 No. kpts 9 Spacing 0.07
REM Total runtime: 7005.06 s
REM Overall efficiency: 94 %
REM
REM
REM
REM compiler GCC version 4.9.2
REM options -cpp -iprefix /lustre/shared/ucl/apps/gcc/4.9.2/bin/../lib/gcc/x86_64-unknown-linux-gnu/4.9.2/ -mtune=corei7 -march=x86-64 -g -Og
REM COMMAND_LINE
REM seed 848631486 1555753291 74405966 -2072081802 -539822481 -1597284375 1467568807 -1881220853 -1157261247 -536438094 -1320449426 -1727147327
REM
REM S 3|1.8|5|6|7|30:31:32(qc=5)
REM O 2|1.5|12|13|15|20:21(qc=5)
REM Li 1|1.3|8|9|10|10U:20(qc=5)
REM Fe 3|2.2|2.0|1.0|8|9|10|40:41:32(qc=5)
REM 
CELL 1.54180    3.19240    2.61532   13.76656   90.00000   90.00000   90.00000
LATT -1
SFAC Li O  S  Fe 
Li     1  0.5000000000000  0.5000000000000  0.3289740000000 1.0   0.00
Li     1  0.5000000000000  0.5000000000000 -0.3289740000000 1.0   0.00
O      2 -0.5000000000000  0.0000000000000 -0.2371720000000 1.0   0.01
O      2  0.5000000000000  0.0000000000000  0.2371720000000 1.0   0.01
O      2  0.0000000000000  0.0000000000000 -0.5000000000000 1.0   0.00
S      3 -0.5000000000000 -0.5000000000000  0.5000000000000 1.0   0.00
Fe     4  0.5000000000000  0.5000000000000 -0.1438940000000 1.0   0.27
Fe     4  0.5000000000000  0.5000000000000  0.1438940000000 1.0   0.27
Fe     4  0.5000000000000  0.0000000000000 -0.0000000000000 1.0  -0.33
END
