TITL LFSO-Li5FeSO3-200910-064337-f6cd76 0.0134 147.630792 -3.48069476E+003 3.06341 3.31536 10 (Cm) n - 1
REM
REM Run started: Thu, 10 Sep 2020 15:19:53 +0100 in /lustre/scratch/uccabz1/launch_tmp/launcher_2020-09-10-05-43-35-135640
REM CASTEP 20.1 from code version af48c487+ pr-geom-scf-spinfix Tue Jun 2 15:39:59 2020 +0100
REM Functional Perdew Burke Ernzerhof Relativity Koelling-Harmon Dispersion off
REM Cut-off 340.0000 eV Grid scale 1.7500 Gmax 16.5316 1/A FBSC none
REM MP grid 5 5 4 Offset 0.000 0.000 0.000 No. kpts 30 Spacing 0.07
REM Total runtime: 36113.6 s
REM Overall efficiency: 95.3846 %
REM
REM
REM
REM compiler GCC version 4.9.2
REM options -cpp -iprefix /lustre/shared/ucl/apps/gcc/4.9.2/bin/../lib/gcc/x86_64-unknown-linux-gnu/4.9.2/ -mtune=corei7 -march=x86-64 -g -Og
REM COMMAND_LINE
REM seed -1751142015 -312706524 1772056962 356144239 -2086447803 -1043504765 -1588875623 1201044413 -1356809188 -2079771696 201063623 1572385995
REM
REM S 3|1.8|5|6|7|30:31:32(qc=5)
REM O 2|1.5|12|13|15|20:21(qc=5)
REM Li 1|1.3|8|9|10|10U:20(qc=5)
REM Fe 3|2.2|2.0|1.0|8|9|10|40:41:32(qc=5)
REM 
CELL 1.54180    6.22454    6.22454   12.79847   37.18571   37.18571   64.97455
LATT -1
SFAC Li O  S  Fe 
Li     1  0.4843680000000 -0.1122920000000 -0.3667110000000 1.0  -0.04
Li     1 -0.1122920000000  0.4843680000000 -0.3667110000000 1.0  -0.04
Li     1  0.5083770000000  0.0839460000000  0.2492520000000 1.0   0.02
Li     1  0.0839460000000  0.5083770000000  0.2492520000000 1.0   0.02
Li     1  0.1653440000000  0.1653440000000  0.1478170000000 1.0   0.04
O      2 -0.5884680000000 -0.0916810000000  0.0765050000000 1.0   0.18
O      2 -0.0916810000000 -0.5884680000000  0.0765050000000 1.0   0.18
O      2  0.0381370000000  0.0381370000000  0.3840180000000 1.0   0.01
S      3  0.3518590000000  0.3518590000000 -0.3751970000000 1.0   0.12
Fe     4 -0.2286810000000 -0.2286810000000  0.0204710000000 1.0   2.58
END
