TITL LFSO-Li6FeS2O2-200920-211908-4f4228 -0.0407 181.112829 -3.54660539E+003 -3.98741 4.09161 11 (Cm) n - 1
REM
REM Run started: Mon, 21 Sep 2020 00:42:19 +0100 in /lustre/scratch/uccabz1/launch_tmp/launcher_2020-09-20-20-19-06-863626
REM CASTEP 20.1 from code version af48c487+ pr-geom-scf-spinfix Tue Jun 2 15:39:59 2020 +0100
REM Functional Perdew Burke Ernzerhof Relativity Koelling-Harmon Dispersion off
REM Cut-off 340.0000 eV Grid scale 1.7500 Gmax 16.5316 1/A FBSC none
REM MP grid 3 3 4 Offset 0.000 0.000 0.000 No. kpts 12 Spacing 0.07
REM Total runtime: 13386.2 s
REM Overall efficiency: 93.3077 %
REM
REM
REM
REM compiler GCC version 4.9.2
REM options -cpp -iprefix /lustre/shared/ucl/apps/gcc/4.9.2/bin/../lib/gcc/x86_64-unknown-linux-gnu/4.9.2/ -mtune=corei7 -march=x86-64 -g -Og
REM COMMAND_LINE
REM seed -133024282 -807541284 1776979159 -1196276095 1023171901 1679570333 457417575 -978426150 -1453793291 -1368117460 359495600 -1766868553
REM
REM S 3|1.8|5|6|7|30:31:32(qc=5)
REM O 2|1.5|12|13|15|20:21(qc=5)
REM Li 1|1.3|8|9|10|10U:20(qc=5)
REM Fe 3|2.2|2.0|1.0|8|9|10|40:41:32(qc=5)
REM 
CELL 1.54180    8.74666    8.74666    3.67509   89.96658   89.96658  139.89689
LATT -1
SFAC Li O  S  Fe 
Li     1 -0.1818400000000  0.5853310000000  0.3349840000000 1.0   0.02
Li     1  0.5853310000000 -0.1818400000000  0.3349840000000 1.0   0.02
Li     1  0.4694380000000  0.1020010000000  0.3349100000000 1.0  -0.00
Li     1  0.1020010000000  0.4694380000000  0.3349100000000 1.0  -0.00
Li     1 -0.1928890000000  0.1297270000000 -0.1670300000000 1.0   0.03
Li     1  0.1297270000000 -0.1928890000000 -0.1670300000000 1.0   0.03
O      2 -0.0863310000000  0.1298030000000  0.3299410000000 1.0  -0.20
O      2  0.1298030000000 -0.0863310000000  0.3299410000000 1.0  -0.20
S      3 -0.2701560000000 -0.6320140000000 -0.1653910000000 1.0  -0.05
S      3 -0.6320140000000 -0.2701560000000 -0.1653910000000 1.0  -0.05
Fe     4  0.0683390000000  0.0683390000000  0.3152760000000 1.0  -3.57
END
