TITL LFSO-Li3Fe3SO5-201001-213212-a31a2a 0.0793 392.317343 -1.13663472E+004 17.7978 18.3586 24 (P3) n - 1
REM
REM Run started: Fri, 02 Oct 2020 11:39:43 +0100 in /lustre/scratch/uccabz1/launch_tmp/launcher_2020-10-01-20-32-11-006405
REM CASTEP 20.1 from code version af48c487+ pr-geom-scf-spinfix Tue Jun 2 15:39:59 2020 +0100
REM Functional Perdew Burke Ernzerhof Relativity Koelling-Harmon Dispersion off
REM Cut-off 340.0000 eV Grid scale 1.7500 Gmax 16.5316 1/A FBSC none
REM MP grid 3 2 2 Offset 0.000 0.000 0.000 No. kpts 6 Spacing 0.07
REM Total runtime: 58266.4 s
REM Overall efficiency: 97.5385 %
REM
REM
REM
REM compiler GCC version 4.9.2
REM options -cpp -iprefix /lustre/shared/ucl/apps/gcc/4.9.2/bin/../lib/gcc/x86_64-unknown-linux-gnu/4.9.2/ -mtune=corei7 -march=x86-64 -g -Og
REM COMMAND_LINE
REM seed -388302630 -1422569477 -1889184714 -632695892 -1111639738 1558133408 -1092187277 112853125 1078484908 -1330945363 -644248700 -196369674
REM
REM S 3|1.8|5|6|7|30:31:32(qc=5)
REM O 2|1.5|12|13|15|20:21(qc=5)
REM Li 1|1.3|8|9|10|10U:20(qc=5)
REM Fe 3|2.2|2.0|1.0|8|9|10|40:41:32(qc=5)
REM 
CELL 1.54180    5.06981    9.45273    9.45273  120.00000   90.00000   90.00000
LATT -1
SFAC Li O  S  Fe 
Li     1 -0.0400120000000  0.1141150000000 -0.5661590000000 1.0   0.01
Li     1 -0.0400120000000  0.5661590000000 -0.3197260000000 1.0   0.01
Li     1 -0.0400120000000  0.3197260000000 -0.1141150000000 1.0   0.01
Li     1 -0.6198890000000  0.0997910000000 -0.2202810000000 1.0   0.00
Li     1 -0.6198890000000  0.2202810000000  0.3200720000000 1.0   0.00
Li     1 -0.6198890000000 -0.3200720000000 -0.0997910000000 1.0   0.00
O      2 -0.1575970000000 -0.1042280000000  0.3726750000000 1.0   0.29
O      2 -0.1575970000000 -0.3726750000000 -0.4769030000000 1.0   0.29
O      2 -0.1575970000000  0.4769030000000  0.1042280000000 1.0   0.29
O      2 -0.3325370000000 -0.2680040000000  0.0394040000000 1.0   0.22
O      2 -0.3325370000000 -0.0394040000000 -0.3074080000000 1.0   0.22
O      2 -0.3325370000000  0.3074080000000  0.2680040000000 1.0   0.22
O      2  0.0894120000000 -0.2169570000000 -0.1367100000000 1.0   0.26
O      2  0.0894120000000  0.1367100000000 -0.0802470000000 1.0   0.26
O      2  0.0894120000000  0.0802470000000  0.2169570000000 1.0   0.26
O      2  0.6514280000000 -0.0000000000000  0.0000000000000 1.0   0.05
S      3  0.6926020000000  0.3333330000000 -0.3333330000000 1.0  -0.01
S      3  0.2690970000000  0.3333330000000 -0.3333330000000 1.0  -0.02
Fe     4 -0.2073760000000 -0.1941690000000  0.4987980000000 1.0   2.59
Fe     4 -0.2073760000000 -0.4987980000000  0.3070330000000 1.0   2.59
Fe     4 -0.2073760000000 -0.3070330000000  0.1941690000000 1.0   2.59
Fe     4 -0.1064410000000 -0.1035470000000  0.0687010000000 1.0   2.55
Fe     4 -0.1064410000000 -0.0687010000000 -0.1722480000000 1.0   2.55
Fe     4 -0.1064410000000  0.1722480000000  0.1035470000000 1.0   2.55
END
