TITL LFSO-Li2FeSO-200912-062840-6e463d -0.1342 436.587045 -6.01185030E+003 -9.52536 10.3053 15 (Cmm2) n - 1
REM
REM Run started: Sat, 12 Sep 2020 19:02:08 +0100 in /lustre/scratch/uccabz1/launch_tmp/launcher_2020-09-12-05-28-37-790079
REM CASTEP 20.1 from code version af48c487+ pr-geom-scf-spinfix Tue Jun 2 15:39:59 2020 +0100
REM Functional Perdew Burke Ernzerhof Relativity Koelling-Harmon Dispersion off
REM Cut-off 340.0000 eV Grid scale 1.7500 Gmax 16.5316 1/A FBSC none
REM MP grid 3 3 3 Offset 0.000 0.000 0.000 No. kpts 8 Spacing 0.07
REM Total runtime: 52771.2 s
REM Overall efficiency: 97.6667 %
REM
REM
REM
REM compiler GCC version 4.9.2
REM options -cpp -iprefix /lustre/shared/ucl/apps/gcc/4.9.2/bin/../lib/gcc/x86_64-unknown-linux-gnu/4.9.2/ -mtune=corei7 -march=x86-64 -g -Og
REM COMMAND_LINE
REM seed 46250210 1947249238 -1515895750 -1072363720 2124296125 81503995 667311961 874403722 -2117494565 -870089508 -2002337904 1536127803
REM
REM S 3|1.8|5|6|7|30:31:32(qc=5)
REM O 2|1.5|12|13|15|20:21(qc=5)
REM Li 1|1.3|8|9|10|10U:20(qc=5)
REM Fe 3|2.2|2.0|1.0|8|9|10|40:41:32(qc=5)
REM 
CELL 1.54180   10.37373   10.37373    7.46194   90.00000   90.00000  147.06504
LATT -1
SFAC Li O  S  Fe 
Li     1 -0.3262650000000 -0.2056340000000  0.0874270000000 1.0   0.02
Li     1  0.3262650000000  0.2056340000000  0.0874270000000 1.0   0.02
Li     1  0.2056340000000  0.3262650000000  0.0874270000000 1.0   0.02
Li     1 -0.2056340000000 -0.3262650000000  0.0874270000000 1.0   0.02
Li     1  0.0587690000000 -0.0587690000000 -0.2800490000000 1.0  -0.02
Li     1 -0.0587690000000  0.0587690000000 -0.2800490000000 1.0  -0.02
O      2 -0.1985630000000 -0.1985630000000 -0.1365930000000 1.0  -0.09
O      2  0.1985630000000  0.1985630000000 -0.1365930000000 1.0  -0.09
O      2  0.5000000000000 -0.5000000000000  0.0964180000000 1.0  -0.02
S      3  0.1660000000000 -0.1660000000000  0.2601780000000 1.0  -0.13
S      3 -0.1660000000000  0.1660000000000  0.2601780000000 1.0  -0.13
S      3  0.5000000000000  0.5000000000000 -0.4646120000000 1.0  -0.13
Fe     4  0.0000000000000 -0.5000000000000  0.3039440000000 1.0  -3.25
Fe     4  0.5000000000000  0.0000000000000  0.3039440000000 1.0  -3.25
Fe     4  0.5000000000000 -0.5000000000000 -0.1802680000000 1.0  -2.47
END
