TITL LFSO-Li4FeSO2-200910-071802-1d90ac 0.0032 440.159136 -8.52198853E+003 -9.99508 10.5997 24 (P222) n - 1
REM
REM Run started: Thu, 10 Sep 2020 22:52:42 +0100 in /lustre/scratch/uccabz1/launch_tmp/launcher_2020-09-10-08-05-48-672375
REM CASTEP 20.1 from code version af48c487+ pr-geom-scf-spinfix Tue Jun 2 15:39:59 2020 +0100
REM Functional Perdew Burke Ernzerhof Relativity Koelling-Harmon Dispersion off
REM Cut-off 340.0000 eV Grid scale 1.7500 Gmax 16.5316 1/A FBSC none
REM MP grid 4 2 2 Offset 0.000 0.000 0.000 No. kpts 2 Spacing 0.07
REM Total runtime: 55112.5 s
REM Overall efficiency: 83.2857 %
REM
REM
REM
REM compiler GCC version 4.9.2
REM options -cpp -iprefix /lustre/shared/ucl/apps/gcc/4.9.2/bin/../lib/gcc/x86_64-unknown-linux-gnu/4.9.2/ -mtune=corei7 -march=x86-64 -g -Og
REM COMMAND_LINE
REM seed -1526647691 -1354534470 458545518 -293540699 2035738018 2079891770 1004015410 -1047807177 2085188329 -495625511 1871513631 -79988275
REM
REM S 3|1.8|5|6|7|30:31:32(qc=5)
REM O 2|1.5|12|13|15|20:21(qc=5)
REM Li 1|1.3|8|9|10|10U:20(qc=5)
REM Fe 3|2.2|2.0|1.0|8|9|10|40:41:32(qc=5)
REM 
CELL 1.54180    3.69824   10.24162   11.62106   90.00000   90.00000   90.00000
LATT -1
SFAC Li O  S  Fe 
Li     1 -0.3754960000000 -0.1090890000000 -0.3825330000000 1.0   0.02
Li     1 -0.3754960000000  0.1090890000000  0.3825330000000 1.0   0.02
Li     1  0.3754960000000  0.1090890000000 -0.3825330000000 1.0   0.02
Li     1  0.3754960000000 -0.1090890000000  0.3825330000000 1.0   0.02
Li     1 -0.1651570000000  0.3423510000000  0.2241730000000 1.0  -0.02
Li     1 -0.1651570000000 -0.3423510000000 -0.2241730000000 1.0  -0.02
Li     1  0.1651570000000 -0.3423510000000  0.2241730000000 1.0  -0.02
Li     1  0.1651570000000  0.3423510000000 -0.2241730000000 1.0  -0.02
Li     1  0.3811200000000  0.1607520000000  0.1331110000000 1.0   0.08
Li     1  0.3811200000000 -0.1607520000000 -0.1331110000000 1.0   0.08
Li     1 -0.3811200000000 -0.1607520000000  0.1331110000000 1.0   0.08
Li     1 -0.3811200000000  0.1607520000000 -0.1331110000000 1.0   0.08
O      2  0.1426210000000  0.1706670000000 -0.2423970000000 1.0  -0.13
O      2  0.1426210000000 -0.1706670000000  0.2423970000000 1.0  -0.13
O      2 -0.1426210000000 -0.1706670000000 -0.2423970000000 1.0  -0.13
O      2 -0.1426210000000  0.1706670000000  0.2423970000000 1.0  -0.13
O      2 -0.2019970000000  0.0000000000000  0.5000000000000 1.0  -0.01
O      2  0.2019970000000  0.0000000000000  0.5000000000000 1.0  -0.01
S      3  0.5000000000000 -0.5000000000000  0.1408050000000 1.0  -0.08
S      3  0.5000000000000 -0.5000000000000 -0.1408050000000 1.0  -0.08
S      3  0.0000000000000  0.0000000000000  0.0000000000000 1.0  -0.20
Fe     4  0.0000000000000  0.0000000000000  0.2198680000000 1.0  -3.11
Fe     4  0.0000000000000  0.0000000000000 -0.2198680000000 1.0  -3.11
Fe     4  0.0000000000000  0.5000000000000  0.0000000000000 1.0  -3.21
END
