TITL LFSO-Li3Fe3S2O4-200928-222911-133a15 -0.0698 395.538906 -1.10994225E+004 -18.0001 18.7848 24 (P21/m) n - 1
REM
REM Run started: Tue, 29 Sep 2020 12:23:57 +0100 in /lustre/scratch/uccabz1/launch_tmp/launcher_2020-09-28-21-29-09-533384
REM CASTEP 20.1 from code version af48c487+ pr-geom-scf-spinfix Tue Jun 2 15:39:59 2020 +0100
REM Functional Perdew Burke Ernzerhof Relativity Koelling-Harmon Dispersion off
REM Cut-off 340.0000 eV Grid scale 1.7500 Gmax 16.5316 1/A FBSC none
REM MP grid 3 3 2 Offset 0.000 0.000 0.000 No. kpts 6 Spacing 0.07
REM Total runtime: 50341.8 s
REM Overall efficiency: 97.1111 %
REM
REM
REM
REM compiler GCC version 4.9.2
REM options -cpp -iprefix /lustre/shared/ucl/apps/gcc/4.9.2/bin/../lib/gcc/x86_64-unknown-linux-gnu/4.9.2/ -mtune=corei7 -march=x86-64 -g -Og
REM COMMAND_LINE
REM seed -344827715 82411995 860610497 378401106 518247740 767644542 1375128296 1553561483 -1149806455 2036572170 887911889 809435274
REM
REM S 3|1.8|5|6|7|30:31:32(qc=5)
REM O 2|1.5|12|13|15|20:21(qc=5)
REM Li 1|1.3|8|9|10|10U:20(qc=5)
REM Fe 3|2.2|2.0|1.0|8|9|10|40:41:32(qc=5)
REM 
CELL 1.54180    6.37805    6.74954    9.32385   90.00000   80.21205   90.00000
LATT -1
SFAC Li O  S  Fe 
Li     1  0.0966100000000  0.0249030000000 -0.2877700000000 1.0  -0.00
Li     1 -0.0966100000000 -0.4750970000000  0.2877700000000 1.0  -0.00
Li     1 -0.0966100000000 -0.0249030000000  0.2877700000000 1.0  -0.00
Li     1  0.0966100000000  0.4750970000000 -0.2877700000000 1.0  -0.00
Li     1 -0.1517940000000  0.2500000000000 -0.4720860000000 1.0  -0.02
Li     1  0.1517940000000 -0.2500000000000  0.4720860000000 1.0  -0.02
O      2 -0.1706890000000  0.0205280000000 -0.3248520000000 1.0  -0.41
O      2  0.1706890000000 -0.4794720000000  0.3248520000000 1.0  -0.41
O      2  0.1706890000000 -0.0205280000000  0.3248520000000 1.0  -0.41
O      2 -0.1706890000000  0.4794720000000 -0.3248520000000 1.0  -0.41
O      2 -0.3197260000000  0.4673800000000  0.4352170000000 1.0  -0.15
O      2  0.3197260000000 -0.0326200000000 -0.4352170000000 1.0  -0.15
O      2  0.3197260000000 -0.4673800000000 -0.4352170000000 1.0  -0.15
O      2 -0.3197260000000  0.0326200000000  0.4352170000000 1.0  -0.15
S      3  0.3866530000000 -0.0047270000000 -0.1340320000000 1.0   0.05
S      3 -0.3866530000000  0.4952730000000  0.1340320000000 1.0   0.05
S      3 -0.3866530000000  0.0047270000000  0.1340320000000 1.0   0.05
S      3  0.3866530000000 -0.4952730000000 -0.1340320000000 1.0   0.05
Fe     4 -0.4164050000000 -0.0279900000000 -0.3694060000000 1.0  -2.69
Fe     4  0.4164050000000 -0.5279900000000  0.3694060000000 1.0  -2.69
Fe     4  0.4164050000000  0.0279900000000  0.3694060000000 1.0  -2.69
Fe     4 -0.4164050000000  0.5279900000000 -0.3694060000000 1.0  -2.69
Fe     4 -0.5031540000000 -0.2500000000000  0.0077660000000 1.0  -2.56
Fe     4  0.5031540000000  0.2500000000000 -0.0077660000000 1.0  -2.56
END
