TITL LFSO-Li2Fe3SO3-200912-152653-26245b -0.0533 130.309960 -4.60662160E+003 9.93964 10.2311 9 (Fmm2) n - 1
REM
REM Run started: Sat, 12 Sep 2020 16:16:23 +0100 in /lustre/scratch/uccabz1/launch_tmp/launcher_2020-09-12-14-26-51-906001
REM CASTEP 20.1 from code version af48c487+ pr-geom-scf-spinfix Tue Jun 2 15:39:59 2020 +0100
REM Functional Perdew Burke Ernzerhof Relativity Koelling-Harmon Dispersion off
REM Cut-off 340.0000 eV Grid scale 1.7500 Gmax 16.5316 1/A FBSC none
REM MP grid 4 4 3 Offset 0.000 0.000 0.000 No. kpts 16 Spacing 0.07
REM Total runtime: 3967.09 s
REM Overall efficiency: 95.3333 %
REM
REM
REM
REM compiler GCC version 4.9.2
REM options -cpp -iprefix /lustre/shared/ucl/apps/gcc/4.9.2/bin/../lib/gcc/x86_64-unknown-linux-gnu/4.9.2/ -mtune=corei7 -march=x86-64 -g -Og
REM COMMAND_LINE
REM seed -962217819 -1879567356 -1999679060 176139687 -1818064939 -1871727346 -28676541 285949936 -406021756 2053661682 1404831988 529306371
REM
REM S 3|1.8|5|6|7|30:31:32(qc=5)
REM O 2|1.5|12|13|15|20:21(qc=5)
REM Li 1|1.3|8|9|10|10U:20(qc=5)
REM Fe 3|2.2|2.0|1.0|8|9|10|40:41:32(qc=5)
REM 
CELL 1.54180    5.16727    5.16727    6.00347  112.68419  112.68419   95.96275
LATT -1
SFAC Li O  S  Fe 
Li     1 -0.2497050000000  0.2502950000000  0.5005910000000 1.0  -0.09
Li     1  0.2502950000000  0.7502950000000  0.5005910000000 1.0  -0.09
O      2  0.0343510000000  0.3805340000000  0.4148840000000 1.0   0.23
O      2  0.3805340000000  0.0343510000000  0.4148840000000 1.0   0.23
O      2 -0.0791300000000 -0.0791300000000 -0.1582590000000 1.0   0.38
S      3 -0.4406910000000  0.5593090000000  0.1186170000000 1.0   0.20
Fe     4 -0.1893840000000  0.2229600000000  0.0335760000000 1.0   3.22
Fe     4  0.2229600000000 -0.1893840000000  0.0335760000000 1.0   3.22
Fe     4  0.3378810000000 -0.6621190000000 -0.3242370000000 1.0   2.62
END
