TITL LFSO-Li4Fe2S2O3-200911-111232-3688d8 0.0232 326.340210 -8.89426114E+003 8.14538 15.1823 22 (R3) n - 1
REM
REM Run started: Fri, 11 Sep 2020 23:20:53 +0100 in /lustre/scratch/uccabz1/launch_tmp/launcher_2020-09-11-10-12-30-780242
REM CASTEP 20.1 from code version af48c487+ pr-geom-scf-spinfix Tue Jun 2 15:39:59 2020 +0100
REM Functional Perdew Burke Ernzerhof Relativity Koelling-Harmon Dispersion off
REM Cut-off 340.0000 eV Grid scale 1.7500 Gmax 16.5316 1/A FBSC none
REM MP grid 3 3 3 Offset 0.000 0.000 0.000 No. kpts 6 Spacing 0.07
REM Total runtime: 43893.6 s
REM Overall efficiency: 98.2 %
REM
REM
REM
REM compiler GCC version 4.9.2
REM options -cpp -iprefix /lustre/shared/ucl/apps/gcc/4.9.2/bin/../lib/gcc/x86_64-unknown-linux-gnu/4.9.2/ -mtune=corei7 -march=x86-64 -g -Og
REM COMMAND_LINE
REM seed 823071818 715344820 1302512400 486844634 -474363100 268252373 -1223451856 -969299120 976309498 -858363342 -969934544 2081888568
REM
REM S 3|1.8|5|6|7|30:31:32(qc=5)
REM O 2|1.5|12|13|15|20:21(qc=5)
REM Li 1|1.3|8|9|10|10U:20(qc=5)
REM Fe 3|2.2|2.0|1.0|8|9|10|40:41:32(qc=5)
REM 
CELL 1.54180    7.62830    7.62830    7.62830   61.77140   61.77140   61.77140
LATT -1
SFAC Li O  S  Fe 
Li     1 -0.0227390000000 -0.3353790000000  0.1015030000000 1.0  -0.02
Li     1  0.1015030000000 -0.0227390000000 -0.3353790000000 1.0  -0.02
Li     1 -0.3353790000000  0.1015030000000 -0.0227390000000 1.0  -0.02
Li     1 -0.4175810000000  0.6246890000000  0.1151450000000 1.0   0.07
Li     1  0.1151450000000 -0.4175810000000  0.6246890000000 1.0   0.07
Li     1  0.6246890000000  0.1151450000000 -0.4175810000000 1.0   0.07
Li     1 -0.1750550000000 -0.1750550000000 -0.1750550000000 1.0   0.09
Li     1  0.1713820000000  0.1713820000000  0.1713820000000 1.0   0.07
O      2  0.0189700000000  0.4192590000000  0.3330020000000 1.0  -0.01
O      2  0.3330020000000  0.0189700000000  0.4192590000000 1.0  -0.01
O      2  0.4192590000000  0.3330020000000  0.0189700000000 1.0  -0.01
O      2  0.1263730000000 -0.3113220000000 -0.2085450000000 1.0   0.25
O      2 -0.2085450000000  0.1263730000000 -0.3113220000000 1.0   0.25
O      2 -0.3113220000000 -0.2085450000000  0.1263730000000 1.0   0.25
S      3 -0.1488700000000  0.4109770000000 -0.1370790000000 1.0   0.13
S      3 -0.1370790000000 -0.1488700000000  0.4109770000000 1.0   0.13
S      3  0.4109770000000 -0.1370790000000 -0.1488700000000 1.0   0.13
S      3  0.0441850000000  0.0441850000000  0.0441850000000 1.0  -0.19
Fe     4 -0.4035150000000 -0.1818640000000  0.3884380000000 1.0   3.33
Fe     4  0.3884380000000 -0.4035150000000 -0.1818640000000 1.0   3.33
Fe     4 -0.1818640000000  0.3884380000000 -0.4035150000000 1.0   3.33
Fe     4  0.2972420000000  0.2972420000000  0.2972420000000 1.0  -3.09
END
