TITL LFSO-Li6FeSO3-200909-210119-0346a5 0.0341 185.210140 -3.67837228E+003 3.41775 3.60969 11 (Pm) n - 1
REM
REM Run started: Wed, 09 Sep 2020 22:21:35 +0100 in /lustre/scratch/uccabz1/launch_tmp/launcher_2020-09-09-20-01-17-175956
REM CASTEP 20.1 from code version af48c487+ pr-geom-scf-spinfix Tue Jun 2 15:39:59 2020 +0100
REM Functional Perdew Burke Ernzerhof Relativity Koelling-Harmon Dispersion off
REM Cut-off 340.0000 eV Grid scale 1.7500 Gmax 16.5316 1/A FBSC none
REM MP grid 5 3 2 Offset 0.000 0.000 0.000 No. kpts 8 Spacing 0.07
REM Total runtime: 4998.9 s
REM Overall efficiency: 92.6667 %
REM
REM
REM
REM compiler GCC version 4.9.2
REM options -cpp -iprefix /lustre/shared/ucl/apps/gcc/4.9.2/bin/../lib/gcc/x86_64-unknown-linux-gnu/4.9.2/ -mtune=corei7 -march=x86-64 -g -Og
REM COMMAND_LINE
REM seed 1348224522 1260122645 329984085 -513919699 890458023 -1145578450 -1434234637 -2087152459 -2072238672 1983051621 -1194321277 487938483
REM
REM S 3|1.8|5|6|7|30:31:32(qc=5)
REM O 2|1.5|12|13|15|20:21(qc=5)
REM Li 1|1.3|8|9|10|10U:20(qc=5)
REM Fe 3|2.2|2.0|1.0|8|9|10|40:41:32(qc=5)
REM 
CELL 1.54180    3.25240    6.33500    9.00348   90.00000   90.00000   93.24296
LATT -1
SFAC Li O  S  Fe 
Li     1  0.1942640000000  0.5876650000000 -0.2039330000000 1.0  -0.04
Li     1  0.1942640000000  0.5876650000000  0.2039330000000 1.0  -0.04
Li     1 -0.3068930000000  0.6274540000000 -0.3930890000000 1.0  -0.02
Li     1 -0.3068930000000  0.6274540000000  0.3930890000000 1.0  -0.02
Li     1  0.1940280000000 -0.0425200000000  0.3601300000000 1.0   0.00
Li     1  0.1940280000000 -0.0425200000000 -0.3601300000000 1.0   0.00
O      2  0.7099120000000 -0.2694840000000  0.1987610000000 1.0   0.16
O      2  0.7099120000000 -0.2694840000000 -0.1987610000000 1.0   0.16
O      2  0.1997530000000 -0.2550120000000 -0.5000000000000 1.0   0.02
S      3  0.1568270000000  0.2844200000000  0.5000000000000 1.0   0.01
Fe     4 -0.2794130000000 -0.2356620000000  0.0000000000000 1.0   3.20
END
