TITL LFSO-Li2Fe2SO3-200913-085242-104a57 -0.0032 246.077497 -7.48662735E+003 9.98872 10.3093 16 (Pc) n - 1
REM
REM Run started: Sun, 13 Sep 2020 15:57:08 +0100 in /lustre/scratch/uccabz1/launch_tmp/launcher_2020-09-13-07-52-40-080678
REM CASTEP 20.1 from code version af48c487+ pr-geom-scf-spinfix Tue Jun 2 15:39:59 2020 +0100
REM Functional Perdew Burke Ernzerhof Relativity Koelling-Harmon Dispersion off
REM Cut-off 340.0000 eV Grid scale 1.7500 Gmax 16.5316 1/A FBSC none
REM MP grid 6 3 1 Offset 0.000 0.000 0.000 No. kpts 9 Spacing 0.07
REM Total runtime: 25773.9 s
REM Overall efficiency: 97.4 %
REM
REM
REM
REM compiler GCC version 4.9.2
REM options -cpp -iprefix /lustre/shared/ucl/apps/gcc/4.9.2/bin/../lib/gcc/x86_64-unknown-linux-gnu/4.9.2/ -mtune=corei7 -march=x86-64 -g -Og
REM COMMAND_LINE
REM seed -450182959 1880142800 -1240921446 1207992361 1965672368 -1789049664 1830296774 680509672 -2147109521 875042275 -972139459 1721766462
REM
REM S 3|1.8|5|6|7|30:31:32(qc=5)
REM O 2|1.5|12|13|15|20:21(qc=5)
REM Li 1|1.3|8|9|10|10U:20(qc=5)
REM Fe 3|2.2|2.0|1.0|8|9|10|40:41:32(qc=5)
REM 
CELL 1.54180    2.69352    6.90266   14.56096   90.00000   90.00000  114.63795
LATT -1
SFAC Li O  S  Fe 
Li     1 -0.0178050000000 -0.3028860000000 -0.1919020000000 1.0  -0.02
Li     1  0.4821950000000 -0.3028860000000  0.1919020000000 1.0  -0.02
Li     1 -0.5105060000000  0.1539050000000  0.2523740000000 1.0  -0.02
Li     1 -0.0105060000000  0.1539050000000 -0.2523740000000 1.0  -0.02
O      2 -0.2638190000000 -0.0073470000000  0.1598830000000 1.0   0.11
O      2  0.2361810000000 -0.0073470000000 -0.1598830000000 1.0   0.11
O      2  0.1450260000000  0.2984320000000  0.3164990000000 1.0   0.05
O      2 -0.3549740000000  0.2984320000000 -0.3164990000000 1.0   0.05
O      2 -0.1955060000000  0.5288280000000  0.1330390000000 1.0   0.09
O      2  0.3044940000000  0.5288280000000 -0.1330390000000 1.0   0.09
S      3 -0.1052110000000 -0.4702750000000 -0.3582490000000 1.0   0.09
S      3  0.3947890000000 -0.4702750000000  0.3582490000000 1.0   0.09
Fe     4 -0.1972680000000  0.0595700000000 -0.0726680000000 1.0   2.32
Fe     4  0.3027320000000  0.0595700000000  0.0726680000000 1.0   2.32
Fe     4 -0.3514540000000  0.3822880000000 -0.0716450000000 1.0   2.38
Fe     4  0.1485460000000  0.3822880000000  0.0716450000000 1.0   2.38
END
