TITL LFSO-Li6FeS3O-200910-033240-dcfcf9 0.5391 503.494375 -6823.240820503 7.99585 8.53108 22 (R3) n - 1
REM
REM Run started: Fri, 11 Sep 2020 21:04:55 +0100 in /lustre/scratch/uccabz1/launch_tmp/launcher_2020-09-11-13-15-12-939049
REM CASTEP 20.1 from code version af48c487+ pr-geom-scf-spinfix Tue Jun 2 15:39:59 2020 +0100
REM Functional Perdew Burke Ernzerhof Relativity Koelling-Harmon Dispersion off
REM Cut-off 340.0000 eV Grid scale 1.7500 Gmax 16.5316 1/A FBSC none
REM MP grid 3 3 3 Offset 0.000 0.000 0.000 No. kpts 6 Spacing 0.07
REM Total runtime: 135554 s
REM Overall efficiency: 98.8182 %
REM
REM
REM
REM compiler GCC version 4.9.2
REM options -cpp -iprefix /lustre/shared/ucl/apps/gcc/4.9.2/bin/../lib/gcc/x86_64-unknown-linux-gnu/4.9.2/ -mtune=corei7 -march=x86-64 -g -Og
REM COMMAND_LINE
REM seed -342294882 -1550124056 1002946991 1515299338 1448568305 133719451 630247403 1076606905 -1122857122 1536617160 -1317479663 1142965390
REM
REM S 3|1.8|5|6|7|30:31:32(qc=5)
REM O 2|1.5|12|13|15|20:21(qc=5)
REM Li 1|1.3|8|9|10|10U:20(qc=5)
REM Fe 3|2.2|2.0|1.0|8|9|10|40:41:32(qc=5)
REM 
CELL 1.54180   12.13305   12.13305   12.13305   34.21204   34.21204   34.21204
LATT -1
SFAC Li O  S  Fe 
Li     1  0.4451080000000  0.2339320000000 -0.2825570000000 1.0   0.01
Li     1  0.2339320000000 -0.2825570000000  0.4451080000000 1.0   0.01
Li     1 -0.2825570000000  0.4451080000000  0.2339320000000 1.0   0.01
Li     1  0.5552250000000 -0.2511370000000  0.2721080000000 1.0  -0.04
Li     1 -0.2511370000000  0.2721080000000  0.5552250000000 1.0  -0.04
Li     1  0.2721080000000  0.5552250000000 -0.2511370000000 1.0  -0.04
Li     1  0.7152770000000  0.1228000000000  0.0258020000000 1.0  -0.03
Li     1  0.1228000000000  0.0258020000000  0.7152770000000 1.0  -0.03
Li     1  0.0258020000000  0.7152770000000  0.1228000000000 1.0  -0.03
Li     1  0.3977060000000 -0.2354160000000  0.0005100000000 1.0   0.02
Li     1 -0.2354160000000  0.0005100000000  0.3977060000000 1.0   0.02
Li     1  0.0005100000000  0.3977060000000 -0.2354160000000 1.0   0.02
O      2 -0.4908640000000 -0.4908640000000 -0.4908640000000 1.0   0.02
O      2 -0.0733280000000 -0.0733280000000 -0.0733280000000 1.0   0.01
S      3 -0.1181210000000  0.0540960000000 -0.5325800000000 1.0   0.21
S      3  0.0540960000000 -0.5325800000000 -0.1181210000000 1.0   0.21
S      3 -0.5325800000000 -0.1181210000000  0.0540960000000 1.0   0.21
S      3  0.3319650000000  0.0606540000000 -0.3222290000000 1.0   0.24
S      3  0.0606540000000 -0.3222290000000  0.3319650000000 1.0   0.24
S      3 -0.3222290000000  0.3319650000000  0.0606540000000 1.0   0.24
Fe     4 -0.1853850000000 -0.1853850000000 -0.1853850000000 1.0   3.38
Fe     4  0.3561400000000  0.3561400000000  0.3561400000000 1.0   3.36
END
