TITL LFSO-Li2Fe2S3O-200913-021016-1b5b3e -0.0212 307.079601 -6.95557710E+003 -0.343564E-01 12.3883 16 (Pc) n - 1
REM
REM Run started: Sun, 13 Sep 2020 13:32:29 +0100 in /lustre/scratch/uccabz1/launch_tmp/launcher_2020-09-13-01-10-14-739716
REM CASTEP 20.1 from code version af48c487+ pr-geom-scf-spinfix Tue Jun 2 15:39:59 2020 +0100
REM Functional Perdew Burke Ernzerhof Relativity Koelling-Harmon Dispersion off
REM Cut-off 340.0000 eV Grid scale 1.7500 Gmax 16.5316 1/A FBSC none
REM MP grid 3 4 2 Offset 0.000 0.000 0.000 No. kpts 6 Spacing 0.07
REM Total runtime: 41241.6 s
REM Overall efficiency: 86.5 %
REM
REM
REM
REM compiler GCC version 4.9.2
REM options -cpp -iprefix /lustre/shared/ucl/apps/gcc/4.9.2/bin/../lib/gcc/x86_64-unknown-linux-gnu/4.9.2/ -mtune=corei7 -march=x86-64 -g -Og
REM COMMAND_LINE
REM seed -1077803921 2104458510 742263556 -785107620 -1347169832 1287701036 946451499 -277600615 -315482845 -1839671963 -1894649210 1217359180
REM
REM S 3|1.8|5|6|7|30:31:32(qc=5)
REM O 2|1.5|12|13|15|20:21(qc=5)
REM Li 1|1.3|8|9|10|10U:20(qc=5)
REM Fe 3|2.2|2.0|1.0|8|9|10|40:41:32(qc=5)
REM 
CELL 1.54180    9.72427    6.55263    7.49668   90.00000   90.00000  139.99537
LATT -1
SFAC Li O  S  Fe 
Li     1 -0.3507690000000  0.1143680000000 -0.3901480000000 1.0  -0.03
Li     1 -0.3507690000000 -0.3856320000000  0.3901480000000 1.0  -0.03
Li     1  0.1757100000000 -0.4183110000000 -0.3642380000000 1.0  -0.03
Li     1  0.1757100000000  0.0816890000000  0.3642380000000 1.0  -0.03
O      2 -0.1079140000000 -0.2398810000000  0.3000080000000 1.0   0.44
O      2 -0.1079140000000  0.2601190000000 -0.3000080000000 1.0   0.44
S      3 -0.5681630000000 -0.3790430000000 -0.1120040000000 1.0   0.01
S      3 -0.5681630000000  0.1209570000000  0.1120040000000 1.0   0.01
S      3 -0.1121500000000  0.3103610000000  0.1309570000000 1.0  -0.03
S      3 -0.1121500000000 -0.1896390000000 -0.1309570000000 1.0  -0.03
S      3  0.4118720000000 -0.3518020000000 -0.6145880000000 1.0  -0.26
S      3  0.4118720000000  0.1481980000000  0.6145880000000 1.0  -0.26
Fe     4 -0.2161400000000  0.0195790000000 -0.1127690000000 1.0   2.66
Fe     4 -0.2161400000000  0.5195790000000  0.1127690000000 1.0   2.66
Fe     4 -0.4592530000000  0.4144600000000 -0.1353800000000 1.0  -2.78
Fe     4 -0.4592530000000 -0.0855400000000  0.1353800000000 1.0  -2.78
END
