TITL LFSO-Li2Fe2S2O-200913-133014-176fcf -0.3047 298.445066 -6.34324990E+003 12.3388 12.7646 14 (Pnc2) n - 1
REM
REM Run started: Sun, 13 Sep 2020 16:24:40 +0100 in /lustre/scratch/uccabz1/launch_tmp/launcher_2020-09-13-12-30-12-402413
REM CASTEP 20.1 from code version af48c487+ pr-geom-scf-spinfix Tue Jun 2 15:39:59 2020 +0100
REM Functional Perdew Burke Ernzerhof Relativity Koelling-Harmon Dispersion off
REM Cut-off 340.0000 eV Grid scale 1.7500 Gmax 16.5316 1/A FBSC none
REM MP grid 4 2 2 Offset 0.000 0.000 0.000 No. kpts 2 Spacing 0.07
REM Total runtime: 11380.9 s
REM Overall efficiency: 92.25 %
REM
REM
REM
REM compiler GCC version 4.9.2
REM options -cpp -iprefix /lustre/shared/ucl/apps/gcc/4.9.2/bin/../lib/gcc/x86_64-unknown-linux-gnu/4.9.2/ -mtune=corei7 -march=x86-64 -g -Og
REM COMMAND_LINE
REM seed -1795502412 1842115319 -1519966067 20070855 -951643583 -1171126995 827982785 864864280 -1526052206 1241654938 -64006783 -41930372
REM
REM S 3|1.8|5|6|7|30:31:32(qc=5)
REM O 2|1.5|12|13|15|20:21(qc=5)
REM Li 1|1.3|8|9|10|10U:20(qc=5)
REM Fe 3|2.2|2.0|1.0|8|9|10|40:41:32(qc=5)
REM 
CELL 1.54180    4.80522    7.72227    8.04279   90.00000   90.00000   90.00000
LATT -1
SFAC Li O  S  Fe 
Li     1  0.3276760000000  0.3414120000000 -0.3888920000000 1.0  -0.04
Li     1 -0.3276760000000 -0.3414120000000 -0.3888920000000 1.0  -0.04
Li     1  0.1723240000000  0.3414120000000  0.1111080000000 1.0  -0.04
Li     1 -0.1723240000000 -0.3414120000000  0.1111080000000 1.0  -0.04
O      2  0.0000000000000 -0.5000000000000  0.2699350000000 1.0   0.26
O      2  0.5000000000000  0.5000000000000 -0.2300650000000 1.0   0.26
S      3 -0.1734650000000  0.2605680000000 -0.4326950000000 1.0   0.13
S      3  0.1734650000000 -0.2605680000000 -0.4326950000000 1.0   0.13
S      3 -0.3265350000000  0.2605680000000  0.0673050000000 1.0   0.13
S      3  0.3265350000000 -0.2605680000000  0.0673050000000 1.0   0.13
Fe     4  0.3043050000000 -0.3762860000000  0.3232800000000 1.0   2.87
Fe     4 -0.3043050000000  0.3762860000000  0.3232800000000 1.0   2.87
Fe     4  0.1956950000000 -0.3762860000000 -0.1767200000000 1.0   2.87
Fe     4 -0.1956950000000  0.3762860000000 -0.1767200000000 1.0   2.87
END
