TITL LFSO-Li4Fe3SO4-200930-214554-82761f 0.0097 358.107725 -1.08915491E+004 19.1936 19.8678 24 (Pma2) n - 1
REM
REM Run started: Thu, 01 Oct 2020 13:49:09 +0100 in /lustre/scratch/uccabz1/launch_tmp/launcher_2020-09-30-20-45-52-737317
REM CASTEP 20.1 from code version af48c487+ pr-geom-scf-spinfix Tue Jun 2 15:39:59 2020 +0100
REM Functional Perdew Burke Ernzerhof Relativity Koelling-Harmon Dispersion off
REM Cut-off 340.0000 eV Grid scale 1.7500 Gmax 16.5316 1/A FBSC none
REM MP grid 3 5 1 Offset 0.000 0.000 0.000 No. kpts 6 Spacing 0.07
REM Total runtime: 49322.7 s
REM Overall efficiency: 89.5833 %
REM
REM
REM
REM compiler GCC version 4.9.2
REM options -cpp -iprefix /lustre/shared/ucl/apps/gcc/4.9.2/bin/../lib/gcc/x86_64-unknown-linux-gnu/4.9.2/ -mtune=corei7 -march=x86-64 -g -Og
REM COMMAND_LINE
REM seed 266644207 1396316982 -579988175 -2122187056 -859870445 1573824793 375335309 1335534600 2119588913 -1231016140 -716854309 -1821516399
REM
REM S 3|1.8|5|6|7|30:31:32(qc=5)
REM O 2|1.5|12|13|15|20:21(qc=5)
REM Li 1|1.3|8|9|10|10U:20(qc=5)
REM Fe 3|2.2|2.0|1.0|8|9|10|40:41:32(qc=5)
REM 
CELL 1.54180    6.43462    2.94949   18.86879   90.00000   90.00000   90.00000
LATT -1
SFAC Li O  S  Fe 
Li     1  0.1207660000000  0.2843200000000 -0.1285940000000 1.0  -0.04
Li     1 -0.1207660000000  0.2843200000000  0.1285940000000 1.0  -0.04
Li     1 -0.1207660000000  0.2843200000000  0.3714060000000 1.0  -0.04
Li     1  0.1207660000000  0.2843200000000 -0.3714060000000 1.0  -0.04
Li     1  0.4840940000000 -0.2789370000000 -0.1214940000000 1.0  -0.01
Li     1 -0.4840940000000 -0.2789370000000  0.1214940000000 1.0  -0.01
Li     1 -0.4840940000000 -0.2789370000000  0.3785060000000 1.0  -0.01
Li     1  0.4840940000000 -0.2789370000000 -0.3785060000000 1.0  -0.01
O      2 -0.0292550000000 -0.2040880000000  0.0777540000000 1.0   0.32
O      2  0.0292550000000 -0.2040880000000 -0.0777540000000 1.0   0.32
O      2  0.0292550000000 -0.2040880000000 -0.4222460000000 1.0   0.32
O      2 -0.0292550000000 -0.2040880000000  0.4222460000000 1.0   0.32
O      2 -0.6133010000000  0.2265950000000 -0.3180340000000 1.0   0.03
O      2  0.6133010000000  0.2265950000000  0.3180340000000 1.0   0.03
O      2  0.6133010000000  0.2265950000000  0.1819660000000 1.0   0.03
O      2 -0.6133010000000  0.2265950000000 -0.1819660000000 1.0   0.03
S      3 -0.5000000000000  0.3341730000000  0.0000000000000 1.0   0.01
S      3 -0.5000000000000  0.3341730000000  0.5000000000000 1.0   0.01
Fe     4  0.1925410000000 -0.1583460000000  0.4900900000000 1.0   3.40
Fe     4 -0.1925410000000 -0.1583460000000 -0.4900900000000 1.0   3.40
Fe     4 -0.1925410000000 -0.1583460000000 -0.0099100000000 1.0   3.40
Fe     4  0.1925410000000 -0.1583460000000  0.0099100000000 1.0   3.40
Fe     4 -0.3877310000000 -0.2784910000000  0.2500000000000 1.0   2.17
Fe     4  0.3877310000000 -0.2784910000000 -0.2500000000000 1.0   2.17
END
