TITL LFSO-Li4Fe3SO4-200930-171817-d09c46 0.0383 305.280381 -1.08915321E+004 18.8717 19.3940 24 (P21) n - 1
REM
REM Run started: Thu, 01 Oct 2020 11:25:15 +0100 in /lustre/scratch/uccabz1/launch_tmp/launcher_2020-09-30-16-18-16-143234
REM CASTEP 20.1 from code version af48c487+ pr-geom-scf-spinfix Tue Jun 2 15:39:59 2020 +0100
REM Functional Perdew Burke Ernzerhof Relativity Koelling-Harmon Dispersion off
REM Cut-off 340.0000 eV Grid scale 1.7500 Gmax 16.5316 1/A FBSC none
REM MP grid 5 3 2 Offset 0.000 0.000 0.000 No. kpts 8 Spacing 0.07
REM Total runtime: 55017.9 s
REM Overall efficiency: 97.5833 %
REM
REM
REM
REM compiler GCC version 4.9.2
REM options -cpp -iprefix /lustre/shared/ucl/apps/gcc/4.9.2/bin/../lib/gcc/x86_64-unknown-linux-gnu/4.9.2/ -mtune=corei7 -march=x86-64 -g -Og
REM COMMAND_LINE
REM seed 472256723 1418920408 1951297625 -1609795600 1712552509 254507286 -1831008451 259234893 -1186951439 2106546372 577994754 176732317
REM
REM S 3|1.8|5|6|7|30:31:32(qc=5)
REM O 2|1.5|12|13|15|20:21(qc=5)
REM Li 1|1.3|8|9|10|10U:20(qc=5)
REM Fe 3|2.2|2.0|1.0|8|9|10|40:41:32(qc=5)
REM 
CELL 1.54180    3.72245    6.03574   14.21491   90.00000   90.00000   72.91360
LATT -1
SFAC Li O  S  Fe 
Li     1 -0.6769710000000  0.4000310000000 -0.3907940000000 1.0  -0.04
Li     1  0.6769710000000 -0.4000310000000  0.1092060000000 1.0  -0.04
Li     1 -0.0776590000000 -0.3588780000000  0.3955900000000 1.0  -0.00
Li     1  0.0776590000000  0.3588780000000 -0.1044100000000 1.0  -0.00
Li     1  0.0266220000000 -0.1418700000000  0.1654760000000 1.0  -0.02
Li     1 -0.0266220000000  0.1418700000000 -0.3345240000000 1.0  -0.02
Li     1 -0.4649730000000 -0.2277370000000 -0.4386610000000 1.0   0.01
Li     1  0.4649730000000  0.2277370000000  0.0613390000000 1.0   0.01
O      2  0.1501360000000  0.3342360000000 -0.2385630000000 1.0   0.17
O      2 -0.1501360000000 -0.3342360000000  0.2614370000000 1.0   0.17
O      2  0.3274990000000 -0.1956820000000  0.4367480000000 1.0   0.27
O      2 -0.3274990000000  0.1956820000000 -0.0632520000000 1.0   0.27
O      2 -0.2222010000000 -0.5231720000000 -0.3899900000000 1.0   0.09
O      2  0.2222010000000  0.5231720000000  0.1100100000000 1.0   0.09
O      2  0.3884150000000  0.0650940000000  0.1719760000000 1.0   0.19
O      2 -0.3884150000000 -0.0650940000000 -0.3280240000000 1.0   0.19
S      3 -0.3876140000000  0.7067300000000 -0.1141090000000 1.0   0.12
S      3  0.3876140000000 -0.7067300000000  0.3858910000000 1.0   0.12
Fe     4 -0.2033560000000 -0.3814780000000 -0.2729280000000 1.0   2.62
Fe     4  0.2033560000000  0.3814780000000  0.2270720000000 1.0   2.62
Fe     4  0.0153240000000 -0.0752300000000 -0.0930190000000 1.0   2.96
Fe     4 -0.0153240000000  0.0752300000000  0.4069810000000 1.0   2.96
Fe     4 -0.4925920000000 -0.0473440000000  0.2997170000000 1.0   3.09
Fe     4  0.4925920000000  0.0473440000000 -0.2002830000000 1.0   3.09
END
