TITL LFSO-Li4Fe3S2O3-201001-090234-7227d7 -0.0244 382.577259 -1.06243649E+004 -17.9296 18.6136 24 (P3) n - 1
REM
REM Run started: Thu, 01 Oct 2020 14:23:17 +0100 in /lustre/scratch/uccabz1/launch_tmp/launcher_2020-10-01-08-02-31-598328
REM CASTEP 20.1 from code version af48c487+ pr-geom-scf-spinfix Tue Jun 2 15:39:59 2020 +0100
REM Functional Perdew Burke Ernzerhof Relativity Koelling-Harmon Dispersion off
REM Cut-off 340.0000 eV Grid scale 1.7500 Gmax 16.5316 1/A FBSC none
REM MP grid 3 3 2 Offset 0.000 0.000 0.000 No. kpts 5 Spacing 0.07
REM Total runtime: 19322.3 s
REM Overall efficiency: 75.5 %
REM
REM
REM
REM compiler GCC version 4.9.2
REM options -cpp -iprefix /lustre/shared/ucl/apps/gcc/4.9.2/bin/../lib/gcc/x86_64-unknown-linux-gnu/4.9.2/ -mtune=corei7 -march=x86-64 -g -Og
REM COMMAND_LINE
REM seed -1547711951 -452301432 -753347629 1283868430 1503482957 -2122227511 -70149618 -640619965 -972742898 1116114893 -1444254368 -1826208419
REM
REM S 3|1.8|5|6|7|30:31:32(qc=5)
REM O 2|1.5|12|13|15|20:21(qc=5)
REM Li 1|1.3|8|9|10|10U:20(qc=5)
REM Fe 3|2.2|2.0|1.0|8|9|10|40:41:32(qc=5)
REM 
CELL 1.54180    7.65221    7.65221    7.54422   90.00000   90.00000  120.00000
LATT -1
SFAC Li O  S  Fe 
Li     1 -0.3952440000000 -0.4692610000000  0.4382890000000 1.0  -0.00
Li     1  0.4692610000000  0.0740180000000  0.4382890000000 1.0  -0.00
Li     1 -0.0740180000000  0.3952440000000  0.4382890000000 1.0  -0.00
Li     1 -0.1290410000000 -0.3748720000000  0.1377130000000 1.0  -0.01
Li     1  0.3748720000000  0.2458300000000  0.1377130000000 1.0  -0.01
Li     1 -0.2458300000000  0.1290410000000  0.1377130000000 1.0  -0.01
Li     1  0.3333330000000 -0.3333330000000  0.1027290000000 1.0  -0.06
Li     1  0.3333330000000 -0.3333330000000 -0.3432750000000 1.0   0.03
O      2  0.2632490000000 -0.1260820000000 -0.3860880000000 1.0  -0.16
O      2  0.1260820000000  0.3893310000000 -0.3860880000000 1.0  -0.16
O      2 -0.3893310000000 -0.2632490000000 -0.3860880000000 1.0  -0.16
O      2 -0.2659390000000  0.1204920000000  0.3874760000000 1.0  -0.23
O      2 -0.1204920000000 -0.3864300000000  0.3874760000000 1.0  -0.23
O      2  0.3864300000000  0.2659390000000  0.3874760000000 1.0  -0.23
S      3 -0.4340260000000 -0.4284650000000  0.0075800000000 1.0  -0.19
S      3  0.4284650000000 -0.0055610000000  0.0075800000000 1.0  -0.19
S      3  0.0055610000000  0.4340260000000  0.0075800000000 1.0  -0.19
S      3 -0.0000000000000 -0.0000000000000  0.0044030000000 1.0  -0.10
Fe     4  0.0101540000000 -0.1873410000000  0.5426230000000 1.0  -2.75
Fe     4  0.1873410000000  0.1974960000000  0.5426230000000 1.0  -2.75
Fe     4 -0.1974960000000 -0.0101540000000  0.5426230000000 1.0  -2.75
Fe     4  0.0129930000000  0.2257800000000 -0.1884940000000 1.0  -2.60
Fe     4 -0.2257800000000 -0.2127870000000 -0.1884940000000 1.0  -2.60
Fe     4  0.2127870000000 -0.0129930000000 -0.1884940000000 1.0  -2.60
END
