TITL LFSO-LiFe3SO4-200909-021711-8e058f -0.0298 102.501407 -4.84318089E+003 -0.166563E-01 0.224566E-01 9 (I222) n - 1
REM
REM Run started: Wed, 09 Sep 2020 06:07:56 +0100 in /lustre/scratch/uccabz1/launch_tmp/launcher_2020-09-09-01-17-09-301104
REM CASTEP 20.1 from code version af48c487+ pr-geom-scf-spinfix Tue Jun 2 15:39:59 2020 +0100
REM Functional Perdew Burke Ernzerhof Relativity Koelling-Harmon Dispersion off
REM Cut-off 340.0000 eV Grid scale 1.7500 Gmax 16.5316 1/A FBSC none
REM MP grid 5 4 4 Offset 0.000 0.000 0.000 No. kpts 40 Spacing 0.07
REM Total runtime: 15339 s
REM Overall efficiency: 96.2857 %
REM
REM
REM
REM compiler GCC version 4.9.2
REM options -cpp -iprefix /lustre/shared/ucl/apps/gcc/4.9.2/bin/../lib/gcc/x86_64-unknown-linux-gnu/4.9.2/ -mtune=corei7 -march=x86-64 -g -Og
REM COMMAND_LINE
REM seed 1440463331 -1594632997 -730158685 539800615 -1285367832 1822304786 2017070260 -1252368855 1008144727 -1838056732 -631008680 1300060060
REM
REM S 3|1.8|5|6|7|30:31:32(qc=5)
REM O 2|1.5|12|13|15|20:21(qc=5)
REM Li 1|1.3|8|9|10|10U:20(qc=5)
REM Fe 3|2.2|2.0|1.0|8|9|10|40:41:32(qc=5)
REM 
CELL 1.54180    5.92776    5.92776    5.92776   65.56924  133.56266  136.42277
LATT -1
SFAC Li O  S  Fe 
Li     1  0.0000000000000  0.0000000000000  0.0000000000000 1.0  -0.00
O      2 -0.0789230000000 -0.1648850000000 -0.5772210000000 1.0  -0.00
O      2  0.4123360000000  0.4982980000000  0.5772210000000 1.0  -0.00
O      2  0.0789230000000 -0.4982980000000 -0.0859620000000 1.0  -0.00
O      2 -0.4123360000000  0.1648850000000  0.0859620000000 1.0  -0.00
S      3  0.5000000000000  0.0000000000000  0.5000000000000 1.0   0.00
Fe     4  0.5000000000000 -0.2172930000000  0.2827070000000 1.0  -0.01
Fe     4 -0.5000000000000  0.2172930000000 -0.2827070000000 1.0  -0.01
Fe     4  0.0000000000000 -0.5000000000000  0.5000000000000 1.0   0.00
END
