TITL LFSO-Li4Fe2S4O-200910-173424-5e79bd 0.0086 285.948846 -4.17638013E+003 4.27685 5.53570 11 (Imm2) n - 1
REM
REM Run started: Thu, 10 Sep 2020 19:30:22 +0100 in /lustre/scratch/uccabz1/launch_tmp/launcher_2020-09-10-16-34-22-791124
REM CASTEP 20.1 from code version af48c487+ pr-geom-scf-spinfix Tue Jun 2 15:39:59 2020 +0100
REM Functional Perdew Burke Ernzerhof Relativity Koelling-Harmon Dispersion off
REM Cut-off 340.0000 eV Grid scale 1.7500 Gmax 16.5316 1/A FBSC none
REM MP grid 3 3 3 Offset 0.000 0.000 0.000 No. kpts 8 Spacing 0.07
REM Total runtime: 9531.25 s
REM Overall efficiency: 97 %
REM
REM
REM
REM compiler GCC version 4.9.2
REM options -cpp -iprefix /lustre/shared/ucl/apps/gcc/4.9.2/bin/../lib/gcc/x86_64-unknown-linux-gnu/4.9.2/ -mtune=corei7 -march=x86-64 -g -Og
REM COMMAND_LINE
REM seed 486366833 -1504937260 1857174950 -1014891470 2121857396 532744713 -1838588158 -278412768 152777328 1535385428 220875776 1781810174
REM
REM S 3|1.8|5|6|7|30:31:32(qc=5)
REM O 2|1.5|12|13|15|20:21(qc=5)
REM Li 1|1.3|8|9|10|10U:20(qc=5)
REM Fe 3|2.2|2.0|1.0|8|9|10|40:41:32(qc=5)
REM 
CELL 1.54180    7.94187    7.21244    7.21244   77.16689   56.59404   56.59404
LATT -1
SFAC Li O  S  Fe 
Li     1 -0.1700550000000  0.3770930000000  0.3010280000000 1.0   0.03
Li     1  0.1700550000000 -0.3010280000000 -0.3770930000000 1.0   0.03
Li     1 -0.4919340000000 -0.3010280000000 -0.3770930000000 1.0   0.03
Li     1  0.4919340000000  0.3770930000000  0.3010280000000 1.0   0.03
O      2 -0.5000000000000  0.5327370000000 -0.5327370000000 1.0  -0.35
S      3 -0.5249040000000  0.0522610000000  0.4691320000000 1.0   0.03
S      3  0.5249040000000 -0.4691320000000 -0.0522610000000 1.0   0.03
S      3 -0.0035110000000 -0.4691320000000 -0.0522610000000 1.0   0.03
S      3  0.0035110000000  0.0522610000000  0.4691320000000 1.0   0.03
Fe     4  0.1361730000000  0.1652180000000 -0.4375650000000 1.0   2.19
Fe     4 -0.1361730000000  0.4375650000000 -0.1652180000000 1.0   2.19
END
