TITL LFSO-Li2Fe3SO3-200912-085156-535039 -0.0231 219.904815 -9.21788794E+003 16.0092 16.5525 18 (P3m1) n - 1
REM
REM Run started: Sat, 12 Sep 2020 13:44:30 +0100 in /lustre/scratch/uccabz1/launch_tmp/launcher_2020-09-12-07-51-53-937007
REM CASTEP 20.1 from code version af48c487+ pr-geom-scf-spinfix Tue Jun 2 15:39:59 2020 +0100
REM Functional Perdew Burke Ernzerhof Relativity Koelling-Harmon Dispersion off
REM Cut-off 340.0000 eV Grid scale 1.7500 Gmax 16.5316 1/A FBSC none
REM MP grid 3 3 3 Offset 0.000 0.000 0.000 No. kpts 7 Spacing 0.07
REM Total runtime: 18557.3 s
REM Overall efficiency: 95.2222 %
REM
REM
REM
REM compiler GCC version 4.9.2
REM options -cpp -iprefix /lustre/shared/ucl/apps/gcc/4.9.2/bin/../lib/gcc/x86_64-unknown-linux-gnu/4.9.2/ -mtune=corei7 -march=x86-64 -g -Og
REM COMMAND_LINE
REM seed 2060844391 159662031 -372179698 329656193 116483696 -1327476691 1349596031 1891930250 -1647758658 -2098195737 -865465087 -1892992969
REM
REM S 3|1.8|5|6|7|30:31:32(qc=5)
REM O 2|1.5|12|13|15|20:21(qc=5)
REM Li 1|1.3|8|9|10|10U:20(qc=5)
REM Fe 3|2.2|2.0|1.0|8|9|10|40:41:32(qc=5)
REM 
CELL 1.54180    6.49912    6.49912    6.01166   90.00000   90.00000  120.00000
LATT -1
SFAC Li O  S  Fe 
Li     1  0.0719000000000 -0.4640500000000 -0.0784280000000 1.0  -0.07
Li     1  0.4640500000000 -0.4640500000000 -0.0784280000000 1.0  -0.07
Li     1  0.4640500000000 -0.0719000000000 -0.0784280000000 1.0  -0.07
Li     1  0.3333330000000 -0.3333330000000  0.3890840000000 1.0   0.03
O      2 -0.5152510000000 -0.4847490000000 -0.4034610000000 1.0   0.21
O      2  0.4847490000000 -0.0305020000000 -0.4034610000000 1.0   0.21
O      2  0.0305020000000  0.5152510000000 -0.4034610000000 1.0   0.21
O      2  0.1859290000000 -0.1859290000000  0.0966830000000 1.0   0.14
O      2  0.1859290000000  0.3718570000000  0.0966830000000 1.0   0.14
O      2 -0.3718570000000 -0.1859290000000  0.0966830000000 1.0   0.14
S      3  0.0000000000000 -0.0000000000000  0.5529870000000 1.0   0.15
S      3 -0.3333330000000  0.3333330000000  0.1036140000000 1.0   0.09
Fe     4 -0.1219140000000 -0.2438290000000  0.1376550000000 1.0   2.40
Fe     4  0.2438290000000  0.1219140000000  0.1376550000000 1.0   2.40
Fe     4 -0.1219140000000  0.1219140000000  0.1376550000000 1.0   2.40
Fe     4 -0.2034610000000  0.2034610000000  0.5774910000000 1.0   2.57
Fe     4 -0.2034610000000 -0.4069210000000  0.5774910000000 1.0   2.57
Fe     4  0.4069210000000  0.2034610000000  0.5774910000000 1.0   2.57
END
