TITL LFSO-LiFeSO-200909-063051-a35019 0.0661 116.459321 -3.60851221E+003 5.57981 5.79812 8 (P21) n - 1
REM
REM Run started: Wed, 09 Sep 2020 08:13:12 +0100 in /lustre/scratch/uccabz1/launch_tmp/launcher_2020-09-09-05-30-49-484097
REM CASTEP 20.1 from code version af48c487+ pr-geom-scf-spinfix Tue Jun 2 15:39:59 2020 +0100
REM Functional Perdew Burke Ernzerhof Relativity Koelling-Harmon Dispersion off
REM Cut-off 340.0000 eV Grid scale 1.7500 Gmax 16.5316 1/A FBSC none
REM MP grid 5 5 2 Offset 0.000 0.000 0.000 No. kpts 15 Spacing 0.07
REM Total runtime: 6649.81 s
REM Overall efficiency: 93.7273 %
REM
REM
REM
REM compiler GCC version 4.9.2
REM options -cpp -iprefix /lustre/shared/ucl/apps/gcc/4.9.2/bin/../lib/gcc/x86_64-unknown-linux-gnu/4.9.2/ -mtune=corei7 -march=x86-64 -g -Og
REM COMMAND_LINE
REM seed 1077262471 -524227946 2019693926 -1080470502 903033490 -312088737 120930984 1733725465 -1258966578 -1280698230 -1152935280 2067063836
REM
REM S 3|1.8|5|6|7|30:31:32(qc=5)
REM O 2|1.5|12|13|15|20:21(qc=5)
REM Li 1|1.3|8|9|10|10U:20(qc=5)
REM Fe 3|2.2|2.0|1.0|8|9|10|40:41:32(qc=5)
REM 
CELL 1.54180    3.16133    3.09150   12.33467  104.96825   90.00000   90.00000
LATT -1
SFAC Li O  S  Fe 
Li     1 -0.3037480000000 -0.4746010000000  0.2757490000000 1.0  -0.00
Li     1  0.1962520000000  0.4746010000000 -0.2757490000000 1.0  -0.00
O      2 -0.2378550000000 -0.0579180000000 -0.3034000000000 1.0   0.26
O      2  0.2621450000000  0.0579180000000  0.3034000000000 1.0   0.26
S      3 -0.2513350000000  0.3086330000000  0.0274000000000 1.0   0.00
S      3  0.2486650000000 -0.3086330000000 -0.0274000000000 1.0   0.00
Fe     4  0.2495250000000  0.1967770000000  0.4482020000000 1.0   2.53
Fe     4 -0.2504750000000 -0.1967770000000 -0.4482020000000 1.0   2.53
END
