TITL LFSO-Li2FeSO-200912-022922-248b07 -0.0161 138.574789 -4.01210667E+003 0.114016E-01 0.121716E-01 10 (R3m) n - 1
REM
REM Run started: Sat, 12 Sep 2020 12:49:04 +0100 in /lustre/scratch/uccabz1/launch_tmp/launcher_2020-09-12-01-29-20-258253
REM CASTEP 20.1 from code version af48c487+ pr-geom-scf-spinfix Tue Jun 2 15:39:59 2020 +0100
REM Functional Perdew Burke Ernzerhof Relativity Koelling-Harmon Dispersion off
REM Cut-off 340.0000 eV Grid scale 1.7500 Gmax 16.5316 1/A FBSC none
REM MP grid 4 4 3 Offset 0.000 0.000 0.000 No. kpts 24 Spacing 0.07
REM Total runtime: 40312.4 s
REM Overall efficiency: 97.5 %
REM
REM
REM
REM compiler GCC version 4.9.2
REM options -cpp -iprefix /lustre/shared/ucl/apps/gcc/4.9.2/bin/../lib/gcc/x86_64-unknown-linux-gnu/4.9.2/ -mtune=corei7 -march=x86-64 -g -Og
REM COMMAND_LINE
REM seed 1959333241 -1790049646 -129310408 351806460 1769969050 2026985644 -688975977 -747137954 2131534818 1261583418 -2064929002 1929014356
REM
REM S 3|1.8|5|6|7|30:31:32(qc=5)
REM O 2|1.5|12|13|15|20:21(qc=5)
REM Li 1|1.3|8|9|10|10U:20(qc=5)
REM Fe 3|2.2|2.0|1.0|8|9|10|40:41:32(qc=5)
REM 
CELL 1.54180    5.10783    5.10783    6.80527   67.95809   67.95809   60.00000
LATT -1
SFAC Li O  S  Fe 
Li     1 -0.0096800000000 -0.5638520000000  0.5882360000000 1.0  -0.00
Li     1 -0.5638520000000 -0.0147050000000  0.5882360000000 1.0  -0.00
Li     1 -0.0147050000000 -0.0096800000000  0.5882360000000 1.0  -0.00
Li     1 -0.0356780000000 -0.0356780000000  0.1070340000000 1.0  -0.00
O      2  0.2170640000000  0.2170640000000 -0.6511910000000 1.0   0.00
O      2  0.0602430000000  0.0602430000000 -0.1807280000000 1.0   0.01
S      3 -0.4978840000000 -0.4978840000000  1.4936530000000 1.0   0.00
S      3 -0.3001790000000 -0.3001790000000  0.9005360000000 1.0   0.01
Fe     4  0.3758320000000  0.3758320000000 -1.1274970000000 1.0  -0.00
Fe     4  0.3151910000000  0.3151910000000 -0.9455720000000 1.0   0.00
END
