TITL LFSO-Li2Fe3S3O-200912-211352-701dbe -0.0164 133.225054 -4.33947233E+003 11.7086 11.8100 9 (R3m) n - 1
REM
REM Run started: Sat, 12 Sep 2020 21:46:14 +0100 in /lustre/scratch/uccabz1/launch_tmp/launcher_2020-09-12-20-13-50-652979
REM CASTEP 20.1 from code version af48c487+ pr-geom-scf-spinfix Tue Jun 2 15:39:59 2020 +0100
REM Functional Perdew Burke Ernzerhof Relativity Koelling-Harmon Dispersion off
REM Cut-off 340.0000 eV Grid scale 1.7500 Gmax 16.5316 1/A FBSC none
REM MP grid 3 3 3 Offset 0.000 0.000 0.000 No. kpts 6 Spacing 0.07
REM Total runtime: 2848.43 s
REM Overall efficiency: 93.6667 %
REM
REM
REM
REM compiler GCC version 4.9.2
REM options -cpp -iprefix /lustre/shared/ucl/apps/gcc/4.9.2/bin/../lib/gcc/x86_64-unknown-linux-gnu/4.9.2/ -mtune=corei7 -march=x86-64 -g -Og
REM COMMAND_LINE
REM seed -271616606 830478607 1907593139 101475886 622261665 175401006 -1858099715 1322009940 1146428725 -1979976840 1812389369 1199911211
REM
REM S 3|1.8|5|6|7|30:31:32(qc=5)
REM O 2|1.5|12|13|15|20:21(qc=5)
REM Li 1|1.3|8|9|10|10U:20(qc=5)
REM Fe 3|2.2|2.0|1.0|8|9|10|40:41:32(qc=5)
REM 
CELL 1.54180    5.10758    5.10758    5.10758   90.55085   90.55085   90.55085
LATT -1
SFAC Li O  S  Fe 
Li     1 -0.2824380000000 -0.2824380000000 -0.2824380000000 1.0  -0.04
Li     1 -0.5909750000000 -0.5909750000000 -0.5909750000000 1.0  -0.00
O      2  0.2003110000000  0.2003110000000  0.2003110000000 1.0   0.39
S      3  0.2108300000000 -0.2933270000000 -0.2930770000000 1.0   0.28
S      3 -0.2930770000000  0.2108300000000 -0.2933270000000 1.0   0.28
S      3 -0.2933270000000 -0.2930770000000  0.2108300000000 1.0   0.28
Fe     4  0.1550500000000 -0.1873080000000  0.1552520000000 1.0   3.51
Fe     4  0.1552520000000  0.1550500000000 -0.1873080000000 1.0   3.51
Fe     4 -0.1873080000000  0.1552520000000  0.1550500000000 1.0   3.51
END
