TITL LFSO-LiFe3S4O-200909-071240-77bbe3 -0.0398 145.656781 -4.44287913E+003 8.40719 8.84447 9 (P2) n - 1
REM
REM Run started: Wed, 09 Sep 2020 09:09:22 +0100 in /lustre/scratch/uccabz1/launch_tmp/launcher_2020-09-09-06-12-39-357032
REM CASTEP 20.1 from code version af48c487+ pr-geom-scf-spinfix Tue Jun 2 15:39:59 2020 +0100
REM Functional Perdew Burke Ernzerhof Relativity Koelling-Harmon Dispersion off
REM Cut-off 340.0000 eV Grid scale 1.7500 Gmax 16.5316 1/A FBSC none
REM MP grid 6 2 3 Offset 0.000 0.000 0.000 No. kpts 12 Spacing 0.07
REM Total runtime: 7523.94 s
REM Overall efficiency: 96 %
REM
REM
REM
REM compiler GCC version 4.9.2
REM options -cpp -iprefix /lustre/shared/ucl/apps/gcc/4.9.2/bin/../lib/gcc/x86_64-unknown-linux-gnu/4.9.2/ -mtune=corei7 -march=x86-64 -g -Og
REM COMMAND_LINE
REM seed -1017102157 -415751896 533906774 1398444454 -1208170 -797150793 -630493181 542052542 932903454 -1157648824 -1908903677 -1211579579
REM
REM S 3|1.8|5|6|7|30:31:32(qc=5)
REM O 2|1.5|12|13|15|20:21(qc=5)
REM Li 1|1.3|8|9|10|10U:20(qc=5)
REM Fe 3|2.2|2.0|1.0|8|9|10|40:41:32(qc=5)
REM 
CELL 1.54180    3.03959    7.97167    6.45828   90.00000   90.00000  111.44228
LATT -1
SFAC Li O  S  Fe 
Li     1 -0.5000000000000  0.0000000000000 -0.2649930000000 1.0   0.07
O      2  0.0000000000000  0.5000000000000  0.3350460000000 1.0   0.22
S      3 -0.2643840000000 -0.2496860000000 -0.4067520000000 1.0  -0.04
S      3  0.2643840000000  0.2496860000000 -0.4067520000000 1.0  -0.04
S      3  0.2248910000000 -0.2477560000000  0.0217010000000 1.0   0.02
S      3 -0.2248910000000  0.2477560000000  0.0217010000000 1.0   0.02
Fe     4 -0.3675610000000 -0.3436240000000  0.2512860000000 1.0   2.46
Fe     4  0.3675610000000  0.3436240000000  0.2512860000000 1.0   2.46
Fe     4 -0.5000000000000  0.5000000000000 -0.1804630000000 1.0   3.24
END
