TITL LFSO-Li4FeS2O-200910-121059-812349 0.0454 425.044276 -8.12717602E+003 12.0000 12.3210 24 (P32) n - 1
REM
REM Run started: Thu, 10 Sep 2020 22:57:46 +0100 in /lustre/scratch/uccabz1/launch_tmp/launcher_2020-09-10-11-10-57-228279
REM CASTEP 20.1 from code version af48c487+ pr-geom-scf-spinfix Tue Jun 2 15:39:59 2020 +0100
REM Functional Perdew Burke Ernzerhof Relativity Koelling-Harmon Dispersion off
REM Cut-off 340.0000 eV Grid scale 1.7500 Gmax 16.5316 1/A FBSC none
REM MP grid 2 3 3 Offset 0.000 0.000 0.000 No. kpts 5 Spacing 0.07
REM Total runtime: 43375.1 s
REM Overall efficiency: 81.5833 %
REM
REM
REM
REM compiler GCC version 4.9.2
REM options -cpp -iprefix /lustre/shared/ucl/apps/gcc/4.9.2/bin/../lib/gcc/x86_64-unknown-linux-gnu/4.9.2/ -mtune=corei7 -march=x86-64 -g -Og
REM COMMAND_LINE
REM seed -1122469465 184632170 2127255110 521089285 1796064991 -1073648636 -842778772 841760350 -1768259926 -1289388556 -1879221203 1580541543
REM
REM S 3|1.8|5|6|7|30:31:32(qc=5)
REM O 2|1.5|12|13|15|20:21(qc=5)
REM Li 1|1.3|8|9|10|10U:20(qc=5)
REM Fe 3|2.2|2.0|1.0|8|9|10|40:41:32(qc=5)
REM 
CELL 1.54180    9.63998    7.13532    7.13532  120.00000   90.00000   90.00000
LATT -1
SFAC Li O  S  Fe 
Li     1  0.3305750000000 -0.0616550000000 -0.1364580000000 1.0  -0.06
Li     1 -0.0027580000000  0.1364580000000  0.0748030000000 1.0  -0.06
Li     1 -0.3360910000000 -0.0748030000000  0.0616550000000 1.0  -0.06
Li     1 -0.1136300000000  0.1010680000000 -0.3418550000000 1.0  -0.01
Li     1 -0.4469630000000  0.3418550000000  0.4429230000000 1.0  -0.01
Li     1  0.2197030000000 -0.4429230000000 -0.1010680000000 1.0  -0.01
Li     1  0.0948420000000  0.2454280000000  0.4548800000000 1.0   0.02
Li     1 -0.2384910000000 -0.4548800000000 -0.2094510000000 1.0   0.02
Li     1 -0.5718250000000  0.2094510000000 -0.2454280000000 1.0   0.02
Li     1  0.5764950000000 -0.4179120000000  0.1193390000000 1.0   0.02
Li     1  0.2431620000000 -0.1193390000000 -0.5372510000000 1.0   0.02
Li     1 -0.0901710000000  0.5372510000000  0.4179120000000 1.0   0.02
O      2  0.4206360000000 -0.0906640000000 -0.4102130000000 1.0   0.27
O      2  0.0873020000000  0.4102130000000  0.3195490000000 1.0   0.27
O      2 -0.2460310000000 -0.3195490000000  0.0906640000000 1.0   0.27
S      3 -0.2040560000000 -0.1583690000000 -0.2749240000000 1.0   0.13
S      3 -0.5373890000000  0.2749240000000  0.1165550000000 1.0   0.13
S      3  0.1292780000000 -0.1165550000000  0.1583690000000 1.0   0.13
S      3 -0.1940870000000  0.2083080000000 -0.5884030000000 1.0   0.15
S      3  0.4725790000000  0.5884030000000 -0.2032890000000 1.0   0.15
S      3  0.1392460000000  0.2032890000000 -0.2083080000000 1.0   0.15
Fe     4  0.2352380000000  0.3549830000000  0.1429790000000 1.0   3.48
Fe     4 -0.0980950000000 -0.1429790000000  0.2120040000000 1.0   3.48
Fe     4 -0.4314280000000 -0.2120040000000 -0.3549830000000 1.0   3.48
END
