TITL LFSO-Li6FeSO3-200909-224307-24378f 0.0067 263.002060 -7.36347716E+003 8.00000 8.34046 22 (P-1) n - 1
REM
REM Run started: Thu, 10 Sep 2020 08:02:50 +0100 in /lustre/scratch/uccabz1/launch_tmp/launcher_2020-09-09-21-43-05-533529
REM CASTEP 20.1 from code version af48c487+ pr-geom-scf-spinfix Tue Jun 2 15:39:59 2020 +0100
REM Functional Perdew Burke Ernzerhof Relativity Koelling-Harmon Dispersion off
REM Cut-off 340.0000 eV Grid scale 1.7500 Gmax 16.5316 1/A FBSC none
REM MP grid 4 3 2 Offset 0.000 0.000 0.000 No. kpts 12 Spacing 0.07
REM Total runtime: 36042.9 s
REM Overall efficiency: 93.0769 %
REM
REM
REM
REM compiler GCC version 4.9.2
REM options -cpp -iprefix /lustre/shared/ucl/apps/gcc/4.9.2/bin/../lib/gcc/x86_64-unknown-linux-gnu/4.9.2/ -mtune=corei7 -march=x86-64 -g -Og
REM COMMAND_LINE
REM seed -807985393 704184933 753832435 -1128460420 321392146 -2127836417 2034476464 717994322 2129710995 279202518 -255172692 -1333371829
REM
REM S 3|1.8|5|6|7|30:31:32(qc=5)
REM O 2|1.5|12|13|15|20:21(qc=5)
REM Li 1|1.3|8|9|10|10U:20(qc=5)
REM Fe 3|2.2|2.0|1.0|8|9|10|40:41:32(qc=5)
REM 
CELL 1.54180    3.76875    6.89114   11.01966   85.30697   67.24470   88.96339
LATT -1
SFAC Li O  S  Fe 
Li     1 -0.2964560000000 -0.0962500000000 -0.4410930000000 1.0  -0.03
Li     1  0.2964560000000  0.0962500000000  0.4410930000000 1.0  -0.03
Li     1  0.2509920000000 -0.3472550000000 -0.4380360000000 1.0   0.04
Li     1 -0.2509920000000  0.3472550000000  0.4380360000000 1.0   0.04
Li     1 -0.6667620000000  0.0123940000000 -0.0773350000000 1.0  -0.04
Li     1  0.6667620000000 -0.0123940000000  0.0773350000000 1.0  -0.04
Li     1  1.1680300000000 -0.3770300000000  0.0760320000000 1.0  -0.00
Li     1 -1.1680300000000  0.3770300000000 -0.0760320000000 1.0  -0.00
Li     1  0.3480900000000 -0.4300410000000  0.3505190000000 1.0  -0.10
Li     1 -0.3480900000000  0.4300410000000 -0.3505190000000 1.0  -0.10
Li     1 -0.0373500000000 -0.2093980000000 -0.2047590000000 1.0   0.01
Li     1  0.0373500000000  0.2093980000000  0.2047590000000 1.0   0.01
O      2  0.1233750000000 -0.0757620000000  0.1179990000000 1.0   0.18
O      2 -0.1233750000000  0.0757620000000 -0.1179990000000 1.0   0.18
O      2  0.1423390000000 -0.0833750000000 -0.3871830000000 1.0   0.24
O      2 -0.1423390000000  0.0833750000000  0.3871830000000 1.0   0.24
O      2 -0.2020740000000 -0.3573820000000  0.4328510000000 1.0   0.16
O      2  0.2020740000000  0.3573820000000 -0.4328510000000 1.0   0.16
S      3  0.5795880000000 -0.5921520000000  0.1624020000000 1.0   0.03
S      3 -0.5795880000000  0.5921520000000 -0.1624020000000 1.0   0.03
Fe     4  0.0666760000000  0.1507700000000 -0.2990820000000 1.0   3.51
Fe     4 -0.0666760000000 -0.1507700000000  0.2990820000000 1.0   3.51
END
