TITL LFSO-Li4Fe2SO3-200910-220819-5d1d74 -0.0598 236.354554 -8.28875926E+003 11.9982 12.4549 20 (Pmmn) n - 1
REM
REM Run started: Fri, 11 Sep 2020 02:12:40 +0100 in /lustre/scratch/uccabz1/launch_tmp/launcher_2020-09-10-21-08-17-736467
REM CASTEP 20.1 from code version af48c487+ pr-geom-scf-spinfix Tue Jun 2 15:39:59 2020 +0100
REM Functional Perdew Burke Ernzerhof Relativity Koelling-Harmon Dispersion off
REM Cut-off 340.0000 eV Grid scale 1.7500 Gmax 16.5316 1/A FBSC none
REM MP grid 3 3 3 Offset 0.000 0.000 0.000 No. kpts 8 Spacing 0.07
REM Total runtime: 15060.6 s
REM Overall efficiency: 97.4 %
REM
REM
REM
REM compiler GCC version 4.9.2
REM options -cpp -iprefix /lustre/shared/ucl/apps/gcc/4.9.2/bin/../lib/gcc/x86_64-unknown-linux-gnu/4.9.2/ -mtune=corei7 -march=x86-64 -g -Og
REM COMMAND_LINE
REM seed -1200444704 -1971686865 -1677692469 -1490589185 199504702 -1672366351 -944943802 -661467642 645885677 -82803556 -248005260 -1747260611
REM
REM S 3|1.8|5|6|7|30:31:32(qc=5)
REM O 2|1.5|12|13|15|20:21(qc=5)
REM Li 1|1.3|8|9|10|10U:20(qc=5)
REM Fe 3|2.2|2.0|1.0|8|9|10|40:41:32(qc=5)
REM 
CELL 1.54180    6.05030    6.42693    6.07832   90.00000   90.00000   90.00000
LATT -1
SFAC Li O  S  Fe 
Li     1  0.0164310000000 -0.1974840000000  0.3308360000000 1.0  -0.02
Li     1 -0.4835690000000 -0.3025160000000 -0.3308360000000 1.0  -0.02
Li     1 -0.4835690000000  0.3025160000000 -0.3308360000000 1.0  -0.02
Li     1  0.0164310000000  0.1974840000000  0.3308360000000 1.0  -0.02
Li     1  0.1388700000000  0.3024010000000 -0.3310780000000 1.0  -0.03
Li     1 -0.3611300000000  0.1975990000000  0.3310780000000 1.0  -0.03
Li     1 -0.3611300000000 -0.1975990000000  0.3310780000000 1.0  -0.03
Li     1  0.1388700000000 -0.3024010000000 -0.3310780000000 1.0  -0.03
O      2  0.3269020000000  0.2587550000000  0.3696990000000 1.0   0.24
O      2 -0.1730980000000  0.2412450000000 -0.3696990000000 1.0   0.24
O      2 -0.1730980000000 -0.2412450000000 -0.3696990000000 1.0   0.24
O      2  0.3269020000000 -0.2587550000000  0.3696990000000 1.0   0.24
O      2 -0.1732160000000  0.0000000000000  0.1788640000000 1.0   0.09
O      2  0.3267840000000 -0.5000000000000 -0.1788640000000 1.0   0.09
S      3  0.3195930000000  0.0000000000000 -0.1074730000000 1.0   0.20
S      3 -0.1804070000000 -0.5000000000000  0.1074730000000 1.0   0.20
Fe     4  0.3277450000000  0.3212710000000  0.0792400000000 1.0   2.67
Fe     4 -0.1722550000000  0.1787290000000 -0.0792400000000 1.0   2.67
Fe     4 -0.1722550000000 -0.1787290000000 -0.0792400000000 1.0   2.67
Fe     4  0.3277450000000 -0.3212710000000  0.0792400000000 1.0   2.67
END
