TITL LFSO-Li4Fe2S3O-200911-004809-45ce73 -0.0015 202.009919 -3.87636460E+003 7.99800 8.14213 10 (P3) n - 1
REM
REM Run started: Fri, 11 Sep 2020 03:58:41 +0100 in /lustre/scratch/uccabz1/launch_tmp/launcher_2020-09-10-23-48-07-535795
REM CASTEP 20.1 from code version af48c487+ pr-geom-scf-spinfix Tue Jun 2 15:39:59 2020 +0100
REM Functional Perdew Burke Ernzerhof Relativity Koelling-Harmon Dispersion off
REM Cut-off 340.0000 eV Grid scale 1.7500 Gmax 16.5316 1/A FBSC none
REM MP grid 4 3 3 Offset 0.000 0.000 0.000 No. kpts 10 Spacing 0.07
REM Total runtime: 12250.6 s
REM Overall efficiency: 86.2222 %
REM
REM
REM
REM compiler GCC version 4.9.2
REM options -cpp -iprefix /lustre/shared/ucl/apps/gcc/4.9.2/bin/../lib/gcc/x86_64-unknown-linux-gnu/4.9.2/ -mtune=corei7 -march=x86-64 -g -Og
REM COMMAND_LINE
REM seed -561905630 62897325 222075585 -1553736785 1056452212 -1318617503 -920622125 -336149169 925164115 -1998286907 991990534 1817769688
REM
REM S 3|1.8|5|6|7|30:31:32(qc=5)
REM O 2|1.5|12|13|15|20:21(qc=5)
REM Li 1|1.3|8|9|10|10U:20(qc=5)
REM Fe 3|2.2|2.0|1.0|8|9|10|40:41:32(qc=5)
REM 
CELL 1.54180    4.70028    7.04464    7.04464  120.00000   90.00000   90.00000
LATT -1
SFAC Li O  S  Fe 
Li     1 -0.1757570000000 -0.2955710000000  0.0985740000000 1.0  -0.07
Li     1 -0.1757570000000 -0.0985740000000 -0.3941450000000 1.0  -0.07
Li     1 -0.1757570000000  0.3941450000000  0.2955710000000 1.0  -0.07
Li     1  0.3034610000000  0.3333330000000 -0.3333330000000 1.0   0.09
O      2 -0.2258680000000 -0.3333330000000  0.3333330000000 1.0   0.34
S      3  0.3114580000000 -0.3237140000000 -0.0029320000000 1.0   0.19
S      3  0.3114580000000  0.0029320000000 -0.3207820000000 1.0   0.19
S      3  0.3114580000000  0.3207820000000  0.3237140000000 1.0   0.19
Fe     4 -0.6247540000000 -0.3333330000000  0.3333330000000 1.0   3.75
Fe     4  0.2982070000000  0.0000000000000 -0.0000000000000 1.0   3.46
END
