TITL LFSO-Li3Fe3SO5-201001-211549-d8faec 0.0361 229.811651 -5.68390794E+003 8.77285 9.18426 12 (P1) n - 1
REM
REM Run started: Fri, 02 Oct 2020 01:34:37 +0100 in /scratch/scratch/mmm0366/launch_tmp/launcher_2020-10-01-20-15-47-963791
REM CASTEP 19.11| from code version Version unavailable
REM Functional Perdew Burke Ernzerhof Relativity Koelling-Harmon Dispersion off
REM Cut-off 340.0000 eV Grid scale 1.7500 Gmax 16.5316 1/A FBSC none
REM MP grid 4 4 4 Offset 0.000 0.000 0.000 No. kpts 12 Spacing 0.07
REM Total runtime: 19213 s
REM Overall efficiency: 96.5385 %
REM
REM
REM
REM compiler GCC version 4.9.2
REM options -cpp -iprefix /scratch/UCL/applications/gcc/4.9.2/bin/../lib/gcc/x86_64-unknown-linux-gnu/4.9.2/ -mtune=corei7 -march=x86-64 -g -O2
REM COMMAND_LINE
REM seed 1640183320 369968504 -1737793897 1309649073 2051364516 -1219402024 -1280411826 2068376073 1662117046 1288643897 -1838660020 -59044574
REM
REM S 3|1.8|5|6|7|30:31:32(qc=5)
REM O 2|1.5|12|13|15|20:21(qc=5)
REM Li 1|1.3|8|9|10|10U:20(qc=5)
REM Fe 3|2.2|2.0|1.0|8|9|10|40:41:32(qc=5)
REM 
CELL 1.54180    9.73401    9.73401    9.73401   31.97690   31.97690   31.97690
LATT -1
SFAC Li O  S  Fe 
Li     1 -0.1261090000000 -0.4396120000000  0.2270430000000 1.0   0.01
Li     1 -0.4396120000000  0.2270430000000 -0.1261090000000 1.0   0.01
Li     1  0.2270430000000 -0.1261090000000 -0.4396120000000 1.0   0.01
O      2  0.5340150000000 -0.1203710000000  0.1984340000000 1.0   0.30
O      2 -0.1203710000000  0.1984340000000  0.5340150000000 1.0   0.30
O      2  0.1984340000000  0.5340150000000 -0.1203710000000 1.0   0.30
O      2  0.0979150000000  0.0979150000000  0.0979150000000 1.0   0.18
O      2 -0.2109500000000 -0.2109500000000 -0.2109500000000 1.0   0.21
S      3  0.4431450000000  0.4431450000000  0.4431450000000 1.0   0.14
Fe     4  0.1061360000000  0.4298850000000 -0.1128690000000 1.0   2.44
Fe     4  0.4298850000000 -0.1128690000000  0.1061360000000 1.0   2.44
Fe     4 -0.1128690000000  0.1061360000000  0.4298850000000 1.0   2.44
END
