TITL LFSO-Li4FeSO2-200910-080953-771695 0.0917 324.609186 -8.53098427E+003 11.9996 12.4491 24 (P32) n - 1
REM
REM Run started: Thu, 10 Sep 2020 15:10:16 +0100 in /lustre/scratch/uccabz1/launch_tmp/launcher_2020-09-10-07-09-52-008217
REM CASTEP 20.1 from code version af48c487+ pr-geom-scf-spinfix Tue Jun 2 15:39:59 2020 +0100
REM Functional Perdew Burke Ernzerhof Relativity Koelling-Harmon Dispersion off
REM Cut-off 340.0000 eV Grid scale 1.7500 Gmax 16.5316 1/A FBSC none
REM MP grid 3 3 2 Offset 0.000 0.000 0.000 No. kpts 5 Spacing 0.07
REM Total runtime: 27508.1 s
REM Overall efficiency: 73.75 %
REM
REM
REM
REM compiler GCC version 4.9.2
REM options -cpp -iprefix /lustre/shared/ucl/apps/gcc/4.9.2/bin/../lib/gcc/x86_64-unknown-linux-gnu/4.9.2/ -mtune=corei7 -march=x86-64 -g -Og
REM COMMAND_LINE
REM seed -1223781696 636904080 108704185 1967085265 1161663193 1833721278 1428232949 1170721717 -2005678011 -48044112 1657124643 363138093
REM
REM S 3|1.8|5|6|7|30:31:32(qc=5)
REM O 2|1.5|12|13|15|20:21(qc=5)
REM Li 1|1.3|8|9|10|10U:20(qc=5)
REM Fe 3|2.2|2.0|1.0|8|9|10|40:41:32(qc=5)
REM 
CELL 1.54180    5.88584    5.88584   10.81964   90.00000   90.00000  120.00000
LATT -1
SFAC Li O  S  Fe 
Li     1  0.4032160000000 -0.1263470000000 -0.2132490000000 1.0  -0.03
Li     1  0.1263470000000  0.5295630000000  0.4534180000000 1.0  -0.03
Li     1 -0.5295630000000 -0.4032160000000  0.1200840000000 1.0  -0.03
Li     1  0.4996630000000 -0.0596180000000  0.3064270000000 1.0  -0.02
Li     1  0.0596180000000  0.5592810000000 -0.0269060000000 1.0  -0.02
Li     1 -0.5592810000000 -0.4996630000000 -0.3602390000000 1.0  -0.02
Li     1  0.1895030000000 -0.0849500000000 -0.3950720000000 1.0   0.03
Li     1  0.0849500000000  0.2744530000000  0.2715940000000 1.0   0.03
Li     1 -0.2744530000000 -0.1895030000000 -0.0617390000000 1.0   0.03
Li     1  0.2192420000000  0.2122820000000 -0.1772140000000 1.0  -0.07
Li     1 -0.2122820000000  0.0069600000000  0.4894530000000 1.0  -0.07
Li     1 -0.0069600000000 -0.2192420000000  0.1561190000000 1.0  -0.07
O      2  0.1633250000000 -0.4187900000000 -0.3462320000000 1.0   0.18
O      2  0.4187900000000 -0.4178850000000  0.3204350000000 1.0   0.18
O      2  0.4178850000000 -0.1633250000000 -0.0128980000000 1.0   0.18
O      2 -0.2488100000000  0.5372020000000  0.0444760000000 1.0   0.19
O      2 -0.5372020000000 -0.7860120000000 -0.2888570000000 1.0   0.19
O      2  0.7860120000000  0.2488100000000 -0.6221900000000 1.0   0.19
S      3 -0.1848150000000 -0.0743900000000 -0.2859260000000 1.0   0.18
S      3  0.0743900000000 -0.1104250000000  0.3807410000000 1.0   0.18
S      3  0.1104250000000  0.1848150000000  0.0474080000000 1.0   0.18
Fe     4 -0.3303360000000  0.4906500000000  0.3642130000000 1.0   3.55
Fe     4 -0.4906500000000  0.1790140000000  0.0308800000000 1.0   3.55
Fe     4 -0.1790140000000  0.3303360000000 -0.3024530000000 1.0   3.55
END
