TITL LFSO-Li2Fe4SO4-200912-002747-417cd8 0.0661 133.760919 -5.90982401E+003 12.4085 12.6593 11 (P-1) n - 1
REM
REM Run started: Sat, 12 Sep 2020 03:11:28 +0100 in /lustre/scratch/uccabz1/launch_tmp/launcher_2020-09-11-23-27-45-444860
REM CASTEP 20.1 from code version af48c487+ pr-geom-scf-spinfix Tue Jun 2 15:39:59 2020 +0100
REM Functional Perdew Burke Ernzerhof Relativity Koelling-Harmon Dispersion off
REM Cut-off 340.0000 eV Grid scale 1.7500 Gmax 16.5316 1/A FBSC none
REM MP grid 4 4 4 Offset 0.000 0.000 0.000 No. kpts 32 Spacing 0.07
REM Total runtime: 11488.3 s
REM Overall efficiency: 97.1429 %
REM
REM
REM
REM compiler GCC version 4.9.2
REM options -cpp -iprefix /lustre/shared/ucl/apps/gcc/4.9.2/bin/../lib/gcc/x86_64-unknown-linux-gnu/4.9.2/ -mtune=corei7 -march=x86-64 -g -Og
REM COMMAND_LINE
REM seed -498759297 -907571093 781490986 -609084728 -429851249 1197779141 1463336459 -1458524169 -381517425 19443882 883712598 -1972721920
REM
REM S 3|1.8|5|6|7|30:31:32(qc=5)
REM O 2|1.5|12|13|15|20:21(qc=5)
REM Li 1|1.3|8|9|10|10U:20(qc=5)
REM Fe 3|2.2|2.0|1.0|8|9|10|40:41:32(qc=5)
REM 
CELL 1.54180    6.04946    6.29665    5.10718   62.36841   96.94600   60.51215
LATT -1
SFAC Li O  S  Fe 
Li     1  0.0090160000000  0.0958290000000  0.1399460000000 1.0  -0.03
Li     1 -0.0090160000000 -0.0958290000000 -0.1399460000000 1.0  -0.03
O      2  0.0211290000000  0.2273750000000 -0.3033460000000 1.0   0.17
O      2 -0.0211290000000 -0.2273750000000  0.3033460000000 1.0   0.17
O      2  0.2364300000000  0.1913780000000  0.2500410000000 1.0   0.16
O      2 -0.2364300000000 -0.1913780000000 -0.2500410000000 1.0   0.16
S      3 -0.5000000000000 -0.5000000000000  0.0000000000000 1.0   0.16
Fe     4 -0.3955950000000 -0.0066320000000  0.2644440000000 1.0   2.76
Fe     4  0.3955950000000  0.0066320000000 -0.2644440000000 1.0   2.76
Fe     4 -0.1683850000000  0.5631300000000  0.2134100000000 1.0   3.06
Fe     4  0.1683850000000 -0.5631300000000 -0.2134100000000 1.0   3.06
END
