TITL LFSO-Li2Fe3S3O-200912-200551-47324f 0.0142 281.880927 -8.67673808E+003 3.54713 4.56723 18 (Pcc2) n - 1
REM
REM Run started: Sat, 12 Sep 2020 23:12:53 +0100 in /lustre/scratch/uccabz1/launch_tmp/launcher_2020-09-12-19-05-48-852541
REM CASTEP 20.1 from code version af48c487+ pr-geom-scf-spinfix Tue Jun 2 15:39:59 2020 +0100
REM Functional Perdew Burke Ernzerhof Relativity Koelling-Harmon Dispersion off
REM Cut-off 340.0000 eV Grid scale 1.7500 Gmax 16.5316 1/A FBSC none
REM MP grid 5 2 2 Offset 0.000 0.000 0.000 No. kpts 3 Spacing 0.07
REM Total runtime: 15003.8 s
REM Overall efficiency: 96.6667 %
REM
REM
REM
REM compiler GCC version 4.9.2
REM options -cpp -iprefix /lustre/shared/ucl/apps/gcc/4.9.2/bin/../lib/gcc/x86_64-unknown-linux-gnu/4.9.2/ -mtune=corei7 -march=x86-64 -g -Og
REM COMMAND_LINE
REM seed -1542296071 1863678516 89327370 1760756597 -1445872533 257019210 -1278150296 1108730548 -95369096 -1937599659 -1775384090 -843446335
REM
REM S 3|1.8|5|6|7|30:31:32(qc=5)
REM O 2|1.5|12|13|15|20:21(qc=5)
REM Li 1|1.3|8|9|10|10U:20(qc=5)
REM Fe 3|2.2|2.0|1.0|8|9|10|40:41:32(qc=5)
REM 
CELL 1.54180    2.94790    8.42985   11.34313   90.00000   90.00000   90.00000
LATT -1
SFAC Li O  S  Fe 
Li     1 -0.4714300000000 -0.1464730000000 -0.4595760000000 1.0  -0.01
Li     1  0.4714300000000  0.1464730000000 -0.4595760000000 1.0  -0.01
Li     1  0.4714300000000 -0.1464730000000  0.0404240000000 1.0  -0.01
Li     1 -0.4714300000000  0.1464730000000  0.0404240000000 1.0  -0.01
O      2  0.0000000000000  0.0000000000000  0.0976550000000 1.0   0.03
O      2  0.0000000000000  0.0000000000000 -0.4023450000000 1.0   0.03
S      3  0.4771160000000 -0.3257190000000  0.3082740000000 1.0   0.00
S      3 -0.4771160000000  0.3257190000000  0.3082740000000 1.0   0.00
S      3 -0.4771160000000 -0.3257190000000 -0.1917260000000 1.0   0.00
S      3  0.4771160000000  0.3257190000000 -0.1917260000000 1.0   0.00
S      3 -0.5000000000000  0.0000000000000 -0.1666050000000 1.0   0.02
S      3  0.5000000000000  0.0000000000000  0.3333950000000 1.0   0.02
Fe     4  0.0237720000000  0.1556260000000  0.2375280000000 1.0   0.87
Fe     4 -0.0237720000000 -0.1556260000000  0.2375280000000 1.0   0.87
Fe     4 -0.0237720000000  0.1556260000000 -0.2624720000000 1.0   0.87
Fe     4  0.0237720000000 -0.1556260000000 -0.2624720000000 1.0   0.87
Fe     4 -0.5000000000000  0.5000000000000  0.1812190000000 1.0  -0.00
Fe     4  0.5000000000000  0.5000000000000 -0.3187810000000 1.0  -0.00
END
