TITL LFSO-Li4Fe3S2O3-200927-135143-7936c1 -0.1290 368.408504 -1.06206671E+004 -18.3380 19.1383 24 (C2) n - 1
REM
REM Run started: Tue, 29 Sep 2020 06:41:42 +0100 in /lustre/scratch/uccabz1/launch_tmp/launcher_2020-09-28-13-17-43-063940
REM CASTEP 20.1 from code version af48c487+ pr-geom-scf-spinfix Tue Jun 2 15:39:59 2020 +0100
REM Functional Perdew Burke Ernzerhof Relativity Koelling-Harmon Dispersion off
REM Cut-off 340.0000 eV Grid scale 1.7500 Gmax 16.5316 1/A FBSC none
REM MP grid 4 4 2 Offset 0.000 0.000 0.000 No. kpts 10 Spacing 0.07
REM Total runtime: 108733 s
REM Overall efficiency: 87.0769 %
REM
REM
REM
REM compiler GCC version 4.9.2
REM options -cpp -iprefix /lustre/shared/ucl/apps/gcc/4.9.2/bin/../lib/gcc/x86_64-unknown-linux-gnu/4.9.2/ -mtune=corei7 -march=x86-64 -g -Og
REM COMMAND_LINE
REM seed -65717212 -504380952 -688755924 1953210980 568378676 112534888 -843952954 -1830474016 -1797317116 2116451457 -462117887 -2106767798
REM
REM S 3|1.8|5|6|7|30:31:32(qc=5)
REM O 2|1.5|12|13|15|20:21(qc=5)
REM Li 1|1.3|8|9|10|10U:20(qc=5)
REM Fe 3|2.2|2.0|1.0|8|9|10|40:41:32(qc=5)
REM 
CELL 1.54180    7.01563    7.01563   11.44042   80.47394   80.47394  133.81001
LATT -1
SFAC Li O  S  Fe 
Li     1 -0.3854900000000 -0.2312330000000 -0.2709470000000 1.0   0.03
Li     1  0.2312330000000  0.3854900000000  0.2709470000000 1.0   0.03
Li     1 -0.0296190000000 -0.4446560000000 -0.3330990000000 1.0   0.03
Li     1  0.4446560000000  0.0296190000000  0.3330990000000 1.0   0.03
Li     1  0.3181190000000 -0.1371750000000 -0.1438510000000 1.0   0.04
Li     1  0.1371750000000 -0.3181190000000  0.1438510000000 1.0   0.04
Li     1  0.2367440000000  0.3531700000000 -0.3890430000000 1.0  -0.03
Li     1 -0.3531700000000 -0.2367440000000  0.3890430000000 1.0  -0.03
O      2  0.3008740000000 -0.4358300000000 -0.1216410000000 1.0  -0.20
O      2  0.4358300000000 -0.3008740000000  0.1216410000000 1.0  -0.20
O      2 -0.2239550000000  0.3257940000000  0.1847310000000 1.0  -0.16
O      2 -0.3257940000000  0.2239550000000 -0.1847310000000 1.0  -0.16
O      2  0.2364540000000  0.4129340000000  0.4379360000000 1.0   0.00
O      2 -0.4129340000000 -0.2364540000000 -0.4379360000000 1.0   0.00
S      3  0.0110100000000 -0.0743120000000 -0.2175780000000 1.0  -0.12
S      3  0.0743120000000 -0.0110100000000  0.2175780000000 1.0  -0.12
S      3  0.0524900000000 -0.5162540000000 -0.5318000000000 1.0   0.02
S      3  0.5162540000000 -0.0524900000000  0.5318000000000 1.0   0.02
Fe     4 -0.2738520000000 -0.1941840000000 -0.0186440000000 1.0  -2.80
Fe     4  0.1941840000000  0.2738520000000  0.0186440000000 1.0  -2.80
Fe     4 -0.3475200000000 -0.5660740000000 -0.1054450000000 1.0  -3.00
Fe     4  0.5660740000000  0.3475200000000  0.1054450000000 1.0  -3.00
Fe     4 -0.0666370000000  0.3069150000000 -0.1136890000000 1.0  -2.98
Fe     4 -0.3069150000000  0.0666370000000  0.1136890000000 1.0  -2.98
END
