TITL LFSO-Li4Fe2S3O-200911-015627-5a7d31 0.0055 355.967694 -7.74229188E+003 10.5113 11.6668 20 (Cm) n - 1
REM
REM Run started: Fri, 11 Sep 2020 20:39:19 +0100 in /lustre/scratch/uccabz1/launch_tmp/launcher_2020-09-11-00-56-26-079848
REM CASTEP 20.1 from code version af48c487+ pr-geom-scf-spinfix Tue Jun 2 15:39:59 2020 +0100
REM Functional Perdew Burke Ernzerhof Relativity Koelling-Harmon Dispersion off
REM Cut-off 340.0000 eV Grid scale 1.7500 Gmax 16.5316 1/A FBSC none
REM MP grid 4 3 1 Offset 0.000 0.000 0.000 No. kpts 6 Spacing 0.07
REM Total runtime: 68807.7 s
REM Overall efficiency: 98 %
REM
REM
REM
REM compiler GCC version 4.9.2
REM options -cpp -iprefix /lustre/shared/ucl/apps/gcc/4.9.2/bin/../lib/gcc/x86_64-unknown-linux-gnu/4.9.2/ -mtune=corei7 -march=x86-64 -g -Og
REM COMMAND_LINE
REM seed 1545194092 305196400 1495000288 -251595373 -367757003 921908051 389966211 548954571 -1157089058 -1581518890 777552336 -2092487032
REM
REM S 3|1.8|5|6|7|30:31:32(qc=5)
REM O 2|1.5|12|13|15|20:21(qc=5)
REM Li 1|1.3|8|9|10|10U:20(qc=5)
REM Fe 3|2.2|2.0|1.0|8|9|10|40:41:32(qc=5)
REM 
CELL 1.54180    4.44156    5.33638   16.74299   93.90931   99.42900   65.40769
LATT -1
SFAC Li O  S  Fe 
Li     1  0.3322000000000  0.2946440000000  0.0262630000000 1.0  -0.09
Li     1  0.6268440000000 -0.2946440000000  0.0262630000000 1.0  -0.09
Li     1 -0.0392440000000 -0.2983560000000 -0.2592240000000 1.0  -0.12
Li     1 -0.3375990000000  0.2983560000000 -0.2592240000000 1.0  -0.12
Li     1 -0.1339790000000  0.2968060000000 -0.4697180000000 1.0  -0.01
Li     1  0.1628270000000 -0.2968060000000 -0.4697180000000 1.0  -0.01
Li     1  0.1212870000000 -0.2951160000000  0.3274540000000 1.0  -0.02
Li     1 -0.1738290000000  0.2951160000000  0.3274540000000 1.0  -0.02
O      2 -0.0863420000000  0.1466940000000  0.4295890000000 1.0   0.26
O      2  0.0603520000000 -0.1466940000000  0.4295890000000 1.0   0.26
S      3 -0.1167210000000  0.2235980000000  0.0518390000000 1.0  -0.04
S      3  0.1068770000000 -0.2235980000000  0.0518390000000 1.0  -0.04
S      3 -0.3259440000000 -0.2214360000000 -0.3915990000000 1.0   0.01
S      3  0.4526200000000  0.2214360000000 -0.3915990000000 1.0   0.01
S      3 -0.4614280000000 -0.2131180000000  0.2650780000000 1.0   0.17
S      3  0.3254540000000  0.2131180000000  0.2650780000000 1.0   0.17
Fe     4  0.0458250000000 -0.2606550000000 -0.0843370000000 1.0   2.24
Fe     4 -0.2148300000000  0.2606550000000 -0.0843370000000 1.0   2.24
Fe     4  0.2346390000000  0.2902890000000 -0.1411430000000 1.0   2.85
Fe     4 -0.4750720000000 -0.2902890000000 -0.1411430000000 1.0   2.85
END
