TITL LFSO-Li4Fe2SO3-200910-222547-7c859a -0.0001 263.859497 -8.28838816E+003 15.9162 16.2257 20 (R3m) n - 1
REM
REM Run started: Fri, 11 Sep 2020 13:15:13 +0100 in /lustre/scratch/uccabz1/launch_tmp/launcher_2020-09-10-21-25-45-041316
REM CASTEP 20.1 from code version af48c487+ pr-geom-scf-spinfix Tue Jun 2 15:39:59 2020 +0100
REM Functional Perdew Burke Ernzerhof Relativity Koelling-Harmon Dispersion off
REM Cut-off 340.0000 eV Grid scale 1.7500 Gmax 16.5316 1/A FBSC none
REM MP grid 3 3 2 Offset 0.000 0.000 0.000 No. kpts 7 Spacing 0.07
REM Total runtime: 53491 s
REM Overall efficiency: 71.9 %
REM
REM
REM
REM compiler GCC version 4.9.2
REM options -cpp -iprefix /lustre/shared/ucl/apps/gcc/4.9.2/bin/../lib/gcc/x86_64-unknown-linux-gnu/4.9.2/ -mtune=corei7 -march=x86-64 -g -Og
REM COMMAND_LINE
REM seed 1006075761 1688547282 1272052847 -1849122233 -1492817250 -671198417 -934073659 -428144561 339706528 1804348877 -867113961 987648599
REM
REM S 3|1.8|5|6|7|30:31:32(qc=5)
REM O 2|1.5|12|13|15|20:21(qc=5)
REM Li 1|1.3|8|9|10|10U:20(qc=5)
REM Fe 3|2.2|2.0|1.0|8|9|10|40:41:32(qc=5)
REM 
CELL 1.54180    6.12528    6.12528    8.85727   69.77078   69.77078   60.00000
LATT -1
SFAC Li O  S  Fe 
Li     1  0.2661240000000  0.8122650000000  0.1087250000000 1.0  -0.01
Li     1 -0.1871130000000  0.2661240000000  0.1087250000000 1.0  -0.01
Li     1  0.8122650000000 -0.1871130000000  0.1087250000000 1.0  -0.01
Li     1  0.2514800000000  0.2513110000000 -0.2004260000000 1.0  -0.03
Li     1 -0.3023650000000  0.2514800000000 -0.2004260000000 1.0  -0.03
Li     1  0.2513110000000 -0.3023650000000 -0.2004260000000 1.0  -0.03
Li     1  0.4812500000000  0.4812500000000 -0.4437480000000 1.0  -0.02
Li     1 -0.2663640000000 -0.2663640000000 -0.2009070000000 1.0   0.03
O      2  0.1625950000000 -0.3479980000000  0.0220890000000 1.0   0.32
O      2  0.1633140000000  0.1625950000000  0.0220890000000 1.0   0.32
O      2 -0.3479980000000  0.1633140000000  0.0220890000000 1.0   0.32
O      2  0.0997960000000  0.6128960000000 -0.3260980000000 1.0   0.24
O      2 -0.3865940000000  0.0997960000000 -0.3260980000000 1.0   0.24
O      2  0.6128960000000 -0.3865940000000 -0.3260980000000 1.0   0.24
S      3  0.1973800000000  0.1973800000000  0.4078610000000 1.0   0.14
S      3 -0.4255790000000 -0.4255790000000  0.2767380000000 1.0   0.14
Fe     4 -0.0409000000000 -0.0417530000000  0.5222700000000 1.0   3.40
Fe     4 -0.4396170000000 -0.0409000000000  0.5222700000000 1.0   3.40
Fe     4 -0.0417530000000 -0.4396170000000  0.5222700000000 1.0   3.40
Fe     4  0.2986110000000  0.2986110000000  0.1041670000000 1.0   3.88
END
