TITL LFSO-Li2FeSO-200912-041009-b51293 0.0281 65.174794 -2.00392349E+003 3.33815 3.53385 5 (P2) n - 1
REM
REM Run started: Sat, 12 Sep 2020 04:17:49 +0100 in /lustre/scratch/uccabz1/launch_tmp/launcher_2020-09-12-03-10-07-825005
REM CASTEP 20.1 from code version af48c487+ pr-geom-scf-spinfix Tue Jun 2 15:39:59 2020 +0100
REM Functional Perdew Burke Ernzerhof Relativity Koelling-Harmon Dispersion off
REM Cut-off 340.0000 eV Grid scale 1.7500 Gmax 16.5316 1/A FBSC none
REM MP grid 3 6 4 Offset 0.000 0.000 0.000 No. kpts 24 Spacing 0.07
REM Total runtime: 706.05 s
REM Overall efficiency: 86.4 %
REM
REM
REM
REM compiler GCC version 4.9.2
REM options -cpp -iprefix /lustre/shared/ucl/apps/gcc/4.9.2/bin/../lib/gcc/x86_64-unknown-linux-gnu/4.9.2/ -mtune=corei7 -march=x86-64 -g -Og
REM COMMAND_LINE
REM seed -909468723 -1720608458 655767653 -2021887279 935927864 1516427083 434293974 -65488677 -748334528 -1510573538 1028198017 -750628965
REM
REM S 3|1.8|5|6|7|30:31:32(qc=5)
REM O 2|1.5|12|13|15|20:21(qc=5)
REM Li 1|1.3|8|9|10|10U:20(qc=5)
REM Fe 3|2.2|2.0|1.0|8|9|10|40:41:32(qc=5)
REM 
CELL 1.54180    5.17354    2.83237    5.08006  118.89164   90.00000   90.00000
LATT -1
SFAC Li O  S  Fe 
Li     1  0.4261170000000 -0.3189220000000  0.2351900000000 1.0  -0.01
Li     1  0.4261170000000  0.3189220000000 -0.2351900000000 1.0  -0.01
O      2  0.2835490000000  0.0000000000000  0.0000000000000 1.0   0.17
S      3 -0.1769660000000  0.0000000000000  0.5000000000000 1.0  -0.04
Fe     4 -0.0220620000000  0.5000000000000  0.0000000000000 1.0   3.24
END
