TITL LFSO-Li4FeSO2-200910-071236-45debf -0.0025 382.331865 -5.68292037E+003 -8.00005 8.38914 16 (Cmm2) n - 1
REM
REM Run started: Thu, 10 Sep 2020 12:26:43 +0100 in /lustre/scratch/uccabz1/launch_tmp/launcher_2020-09-10-07-37-47-026688
REM CASTEP 20.1 from code version af48c487+ pr-geom-scf-spinfix Tue Jun 2 15:39:59 2020 +0100
REM Functional Perdew Burke Ernzerhof Relativity Koelling-Harmon Dispersion off
REM Cut-off 340.0000 eV Grid scale 1.7500 Gmax 16.5316 1/A FBSC none
REM MP grid 2 2 3 Offset 0.000 0.000 0.000 No. kpts 4 Spacing 0.07
REM Total runtime: 16265.8 s
REM Overall efficiency: 96.8182 %
REM
REM
REM
REM compiler GCC version 4.9.2
REM options -cpp -iprefix /lustre/shared/ucl/apps/gcc/4.9.2/bin/../lib/gcc/x86_64-unknown-linux-gnu/4.9.2/ -mtune=corei7 -march=x86-64 -g -Og
REM COMMAND_LINE
REM seed -1799083404 -985871648 -1055637129 1383401612 992037815 1676598328 -661343820 -709883809 -1901868709 -1773642109 328651693 -662910191
REM
REM S 3|1.8|5|6|7|30:31:32(qc=5)
REM O 2|1.5|12|13|15|20:21(qc=5)
REM Li 1|1.3|8|9|10|10U:20(qc=5)
REM Fe 3|2.2|2.0|1.0|8|9|10|40:41:32(qc=5)
REM 
CELL 1.54180    8.70644    8.82087    5.72400   90.00000   90.00000  119.57171
LATT -1
SFAC Li O  S  Fe 
Li     1  0.1466870000000 -0.3347560000000  0.2476390000000 1.0   0.01
Li     1 -0.1466870000000  0.3347580000000  0.2476390000000 1.0   0.01
Li     1 -0.4814430000000 -0.3347560000000  0.2476390000000 1.0   0.01
Li     1  0.4814430000000  0.3347580000000  0.2476390000000 1.0   0.01
Li     1 -0.0016400000000 -0.3360070000000 -0.2541240000000 1.0   0.03
Li     1  0.0016400000000  0.3360090000000 -0.2541240000000 1.0   0.03
Li     1 -0.3343680000000 -0.3360070000000 -0.2541240000000 1.0   0.03
Li     1  0.3343680000000  0.3360090000000 -0.2541240000000 1.0   0.03
O      2  0.4549410000000  0.2848030000000 -0.4518920000000 1.0  -0.25
O      2 -0.4549410000000 -0.2848010000000 -0.4518920000000 1.0  -0.25
O      2 -0.1701390000000  0.2848030000000 -0.4518920000000 1.0  -0.25
O      2  0.1701390000000 -0.2848010000000 -0.4518920000000 1.0  -0.25
S      3  0.2414640000000  0.4829300000000  0.0103580000000 1.0  -0.11
S      3 -0.2414640000000 -0.4829280000000  0.0103580000000 1.0  -0.11
Fe     4  0.3390700000000 -0.3218580000000 -0.3222510000000 1.0  -3.47
Fe     4 -0.3390700000000  0.3218600000000 -0.3222510000000 1.0  -3.47
END
