TITL LFSO-Li2Fe2S2O-200913-115331-5360f9 0.0501 300.049168 -9.52046422E+003 -17.3646 17.6989 21 (P32) n - 1
REM
REM Run started: Mon, 14 Sep 2020 02:11:03 +0100 in /lustre/scratch/uccabz1/launch_tmp/launcher_2020-09-13-10-53-28-838602
REM CASTEP 20.1 from code version af48c487+ pr-geom-scf-spinfix Tue Jun 2 15:39:59 2020 +0100
REM Functional Perdew Burke Ernzerhof Relativity Koelling-Harmon Dispersion off
REM Cut-off 340.0000 eV Grid scale 1.7500 Gmax 16.5316 1/A FBSC none
REM MP grid 5 2 2 Offset 0.000 0.000 0.000 No. kpts 10 Spacing 0.07
REM Total runtime: 52059.5 s
REM Overall efficiency: 84 %
REM
REM
REM
REM compiler GCC version 4.9.2
REM options -cpp -iprefix /lustre/shared/ucl/apps/gcc/4.9.2/bin/../lib/gcc/x86_64-unknown-linux-gnu/4.9.2/ -mtune=corei7 -march=x86-64 -g -Og
REM COMMAND_LINE
REM seed 511693362 602669644 615944208 -1886784341 941690770 -326014207 1332041527 -1434314106 -2066068918 257527126 990207963 1911057308
REM
REM S 3|1.8|5|6|7|30:31:32(qc=5)
REM O 2|1.5|12|13|15|20:21(qc=5)
REM Li 1|1.3|8|9|10|10U:20(qc=5)
REM Fe 3|2.2|2.0|1.0|8|9|10|40:41:32(qc=5)
REM 
CELL 1.54180    3.34896   10.17129   10.17129  120.00000   90.00000   90.00000
LATT -1
SFAC Li O  S  Fe 
Li     1 -0.6470820000000 -0.2042210000000  0.3305220000000 1.0   0.00
Li     1 -0.3137480000000 -0.4652560000000  0.2042210000000 1.0   0.00
Li     1  0.0195850000000 -0.3305220000000  0.4652560000000 1.0   0.00
Li     1 -0.0248260000000  0.3893180000000 -0.0731690000000 1.0  -0.07
Li     1  0.3085070000000 -0.4624880000000 -0.3893180000000 1.0  -0.07
Li     1 -0.3581600000000  0.0731690000000  0.4624880000000 1.0  -0.07
O      2 -0.1559330000000 -0.1332020000000  0.4455050000000 1.0  -0.26
O      2  0.1774000000000 -0.4212930000000  0.1332020000000 1.0  -0.26
O      2 -0.4892670000000 -0.4455050000000  0.4212930000000 1.0  -0.26
S      3 -0.1170370000000 -0.1630050000000 -0.2411340000000 1.0  -0.13
S      3  0.2162960000000 -0.0781290000000  0.1630050000000 1.0  -0.13
S      3  0.5496300000000  0.2411340000000  0.0781290000000 1.0  -0.13
S      3  0.0172150000000  0.2592190000000  0.4212090000000 1.0  -0.15
S      3  0.3505490000000  0.1619900000000 -0.2592190000000 1.0  -0.15
S      3 -0.3161180000000 -0.4212090000000 -0.1619900000000 1.0  -0.15
Fe     4  0.1897090000000 -0.3288670000000  0.0163020000000 1.0  -2.97
Fe     4 -0.4769580000000  0.3451690000000  0.3288670000000 1.0  -2.97
Fe     4 -0.1436250000000 -0.0163020000000 -0.3451690000000 1.0  -2.97
Fe     4  0.0309260000000  0.1287280000000  0.1463310000000 1.0  -2.21
Fe     4  0.3642590000000  0.0176030000000 -0.1287280000000 1.0  -2.21
Fe     4  0.6975930000000 -0.1463310000000 -0.0176030000000 1.0  -2.21
END
