TITL LFSO-Li4FeS2O-200910-112811-6420f2 -0.0590 246.780917 -5.41805708E+003 4.00220 4.64677 16 (C2221) n - 1
REM
REM Run started: Thu, 10 Sep 2020 13:29:52 +0100 in /lustre/scratch/uccabz1/launch_tmp/launcher_2020-09-10-10-28-09-671486
REM CASTEP 20.1 from code version af48c487+ pr-geom-scf-spinfix Tue Jun 2 15:39:59 2020 +0100
REM Functional Perdew Burke Ernzerhof Relativity Koelling-Harmon Dispersion off
REM Cut-off 340.0000 eV Grid scale 1.7500 Gmax 16.5316 1/A FBSC none
REM MP grid 3 3 3 Offset 0.000 0.000 0.000 No. kpts 8 Spacing 0.07
REM Total runtime: 7476.96 s
REM Overall efficiency: 95.75 %
REM
REM
REM
REM compiler GCC version 4.9.2
REM options -cpp -iprefix /lustre/shared/ucl/apps/gcc/4.9.2/bin/../lib/gcc/x86_64-unknown-linux-gnu/4.9.2/ -mtune=corei7 -march=x86-64 -g -Og
REM COMMAND_LINE
REM seed -1554678458 -489767056 1890131953 -2001418719 1581849650 -1706571106 -698417841 964467552 -630331166 -1850069612 664737870 1098009823
REM
REM S 3|1.8|5|6|7|30:31:32(qc=5)
REM O 2|1.5|12|13|15|20:21(qc=5)
REM Li 1|1.3|8|9|10|10U:20(qc=5)
REM Fe 3|2.2|2.0|1.0|8|9|10|40:41:32(qc=5)
REM 
CELL 1.54180    6.01754    6.49357    6.49357   76.55172   90.00000   90.00000
LATT -1
SFAC Li O  S  Fe 
Li     1  0.2059600000000  0.1858600000000 -0.0992980000000 1.0  -0.06
Li     1 -0.2940400000000 -0.1858600000000  0.0992980000000 1.0  -0.06
Li     1  0.2940400000000 -0.0992980000000  0.1858600000000 1.0  -0.06
Li     1 -0.2059600000000  0.0992980000000 -0.1858600000000 1.0  -0.06
Li     1 -0.0763830000000  0.0670100000000  0.2693180000000 1.0   0.03
Li     1  0.4236170000000 -0.0670100000000 -0.2693180000000 1.0   0.03
Li     1 -0.4236170000000  0.2693180000000  0.0670100000000 1.0   0.03
Li     1  0.0763830000000 -0.2693180000000 -0.0670100000000 1.0   0.03
O      2 -0.0000000000000 -0.0197860000000  0.0197860000000 1.0  -0.00
O      2  0.5000000000000  0.0197860000000 -0.0197860000000 1.0  -0.00
S      3  0.0115190000000 -0.2547910000000 -0.4421630000000 1.0  -0.00
S      3  0.5115190000000  0.2547910000000  0.4421630000000 1.0  -0.00
S      3 -0.5115190000000 -0.4421630000000 -0.2547910000000 1.0  -0.00
S      3 -0.0115190000000  0.4421630000000  0.2547910000000 1.0  -0.00
Fe     4  0.2500000000000 -0.5085510000000 -0.5085510000000 1.0   2.06
Fe     4 -0.2500000000000  0.5085510000000  0.5085510000000 1.0   2.06
END
