TITL LFSO-Li4Fe3SO4-200930-192843-4e1edb 0.1812 413.493317 -1.08910634E+004 23.9807 24.5104 24 (Pba2) n - 1
REM
REM Run started: Wed, 30 Sep 2020 23:21:28 +0100 in /lustre/scratch/uccabz1/launch_tmp/launcher_2020-09-30-18-28-41-518056
REM CASTEP 20.1 from code version af48c487+ pr-geom-scf-spinfix Tue Jun 2 15:39:59 2020 +0100
REM Functional Perdew Burke Ernzerhof Relativity Koelling-Harmon Dispersion off
REM Cut-off 340.0000 eV Grid scale 1.7500 Gmax 16.5316 1/A FBSC none
REM MP grid 3 2 2 Offset 0.000 0.000 0.000 No. kpts 2 Spacing 0.07
REM Total runtime: 15171.5 s
REM Overall efficiency: 78.5833 %
REM
REM
REM
REM compiler GCC version 4.9.2
REM options -cpp -iprefix /lustre/shared/ucl/apps/gcc/4.9.2/bin/../lib/gcc/x86_64-unknown-linux-gnu/4.9.2/ -mtune=corei7 -march=x86-64 -g -Og
REM COMMAND_LINE
REM seed 1709009549 459539054 -904179298 -1294260217 -659965233 -1624521022 1521950443 1134046321 -1567026402 1141265801 -389040341 1089498798
REM
REM S 3|1.8|5|6|7|30:31:32(qc=5)
REM O 2|1.5|12|13|15|20:21(qc=5)
REM Li 1|1.3|8|9|10|10U:20(qc=5)
REM Fe 3|2.2|2.0|1.0|8|9|10|40:41:32(qc=5)
REM 
CELL 1.54180    5.71580    7.88640    9.17303   90.00000   90.00000   90.00000
LATT -1
SFAC Li O  S  Fe 
Li     1  0.3611230000000  0.4155040000000 -0.1964630000000 1.0  -0.03
Li     1 -0.3611230000000  0.4155040000000  0.1964630000000 1.0  -0.03
Li     1  0.1388770000000  0.4155040000000  0.3035370000000 1.0  -0.03
Li     1 -0.1388770000000  0.4155040000000 -0.3035370000000 1.0  -0.03
Li     1 -0.0765490000000  0.0364360000000  0.3393330000000 1.0  -0.00
Li     1  0.0765490000000  0.0364360000000 -0.3393330000000 1.0  -0.00
Li     1 -0.4234510000000  0.0364360000000 -0.1606670000000 1.0  -0.00
Li     1  0.4234510000000  0.0364360000000  0.1606670000000 1.0  -0.00
O      2  0.0784020000000  0.5290190000000 -0.1879700000000 1.0   0.28
O      2 -0.0784020000000  0.5290190000000  0.1879700000000 1.0   0.28
O      2 -0.5784020000000  0.5290190000000  0.3120300000000 1.0   0.28
O      2  0.5784020000000  0.5290190000000 -0.3120300000000 1.0   0.28
O      2  0.1927310000000 -0.1042410000000  0.2569320000000 1.0   0.38
O      2 -0.1927310000000 -0.1042410000000 -0.2569320000000 1.0   0.38
O      2  0.3072690000000 -0.1042410000000 -0.2430680000000 1.0   0.38
O      2 -0.3072690000000 -0.1042410000000  0.2430680000000 1.0   0.38
S      3 -0.0000000000000  0.2615790000000  0.5000000000000 1.0   0.12
S      3  0.5000000000000  0.2615790000000 -0.0000000000000 1.0   0.12
Fe     4 -0.0443910000000 -0.2307220000000  0.1631050000000 1.0   3.62
Fe     4  0.0443910000000 -0.2307220000000 -0.1631050000000 1.0   3.62
Fe     4 -0.4556090000000 -0.2307220000000 -0.3368950000000 1.0   3.62
Fe     4  0.4556090000000 -0.2307220000000  0.3368950000000 1.0   3.62
Fe     4 -0.0000000000000  0.4945560000000 -0.0000000000000 1.0   3.38
Fe     4  0.5000000000000  0.4945560000000  0.5000000000000 1.0   3.38
END
