TITL LFSO-Li5FeS2O2-200920-220804-6c3f5d -0.0032 290.106655 -6.69382733E+003 9.99062 10.0674 20 (Iba2) n - 1
REM
REM Run started: Mon, 21 Sep 2020 07:41:24 +0100 in /lustre/scratch/uccabz1/launch_tmp/launcher_2020-09-20-21-08-02-436260
REM CASTEP 20.1 from code version af48c487+ pr-geom-scf-spinfix Tue Jun 2 15:39:59 2020 +0100
REM Functional Perdew Burke Ernzerhof Relativity Koelling-Harmon Dispersion off
REM Cut-off 340.0000 eV Grid scale 1.7500 Gmax 16.5316 1/A FBSC none
REM MP grid 3 3 3 Offset 0.000 0.000 0.000 No. kpts 8 Spacing 0.07
REM Total runtime: 37909.2 s
REM Overall efficiency: 98.2727 %
REM
REM
REM
REM compiler GCC version 4.9.2
REM options -cpp -iprefix /lustre/shared/ucl/apps/gcc/4.9.2/bin/../lib/gcc/x86_64-unknown-linux-gnu/4.9.2/ -mtune=corei7 -march=x86-64 -g -Og
REM COMMAND_LINE
REM seed -1829777375 1033569767 2089559163 2080136329 -1634791448 -560950666 2110249901 -1224392531 91043901 902050306 -1766663405 1215032300
REM
REM S 3|1.8|5|6|7|30:31:32(qc=5)
REM O 2|1.5|12|13|15|20:21(qc=5)
REM Li 1|1.3|8|9|10|10U:20(qc=5)
REM Fe 3|2.2|2.0|1.0|8|9|10|40:41:32(qc=5)
REM 
CELL 1.54180   11.71655    7.68916    7.68916   52.75090   40.36915   40.36915
LATT -1
SFAC Li O  S  Fe 
Li     1 -0.2405020000000 -0.4085290000000 -0.2390850000000 1.0   0.01
Li     1  0.1118850000000  0.4085290000000  0.2390850000000 1.0   0.01
Li     1 -0.3881150000000  0.2390850000000  0.4085290000000 1.0   0.01
Li     1  0.2594980000000 -0.2390850000000 -0.4085290000000 1.0   0.01
Li     1 -0.5852260000000 -0.0983750000000 -0.2518810000000 1.0  -0.03
Li     1  0.0645180000000  0.0983750000000  0.2518810000000 1.0  -0.03
Li     1  0.5645180000000  0.2518810000000  0.0983750000000 1.0  -0.03
Li     1 -0.0852260000000 -0.2518810000000 -0.0983750000000 1.0  -0.03
Li     1  0.0405700000000 -0.0000000000000 -0.0000000000000 1.0   0.06
Li     1 -0.4594300000000 -0.0000000000000 -0.0000000000000 1.0   0.06
O      2 -0.1334970000000 -0.2868830000000 -0.2636760000000 1.0   0.39
O      2  0.3159450000000  0.2868830000000  0.2636760000000 1.0   0.39
O      2 -0.1840550000000  0.2636760000000  0.2868830000000 1.0   0.39
O      2  0.3665030000000 -0.2636760000000 -0.2868830000000 1.0   0.39
S      3  0.2547910000000  0.3269910000000 -0.1924620000000 1.0   0.20
S      3  0.3893190000000 -0.3269910000000  0.1924620000000 1.0   0.20
S      3 -0.1106810000000  0.1924620000000 -0.3269910000000 1.0   0.20
S      3 -0.2452090000000 -0.1924620000000  0.3269910000000 1.0   0.20
Fe     4 -0.3319560000000  0.5000000000000  0.5000000000000 1.0   3.81
Fe     4  0.1680440000000  0.5000000000000 -0.5000000000000 1.0   3.81
END
