TITL LFSO-Li2Fe2S2O-200913-114709-79f4d3 0.0394 155.136775 -3.17121822E+003 5.95685 6.26123 7 (Fmm2) n - 1
REM
REM Run started: Sun, 13 Sep 2020 15:32:54 +0100 in /lustre/scratch/uccabz1/launch_tmp/launcher_2020-09-13-10-47-07-859465
REM CASTEP 20.1 from code version af48c487+ pr-geom-scf-spinfix Tue Jun 2 15:39:59 2020 +0100
REM Functional Perdew Burke Ernzerhof Relativity Koelling-Harmon Dispersion off
REM Cut-off 340.0000 eV Grid scale 1.7500 Gmax 16.5316 1/A FBSC none
REM MP grid 4 4 5 Offset 0.000 0.000 0.000 No. kpts 26 Spacing 0.07
REM Total runtime: 14549.5 s
REM Overall efficiency: 96.0769 %
REM
REM
REM
REM compiler GCC version 4.9.2
REM options -cpp -iprefix /lustre/shared/ucl/apps/gcc/4.9.2/bin/../lib/gcc/x86_64-unknown-linux-gnu/4.9.2/ -mtune=corei7 -march=x86-64 -g -Og
REM COMMAND_LINE
REM seed -1039486983 -523930881 67406883 78952595 -2093912925 1774110935 -562890375 -633928396 -1950230413 975031459 -1368022368 -729693934
REM
REM S 3|1.8|5|6|7|30:31:32(qc=5)
REM O 2|1.5|12|13|15|20:21(qc=5)
REM Li 1|1.3|8|9|10|10U:20(qc=5)
REM Fe 3|2.2|2.0|1.0|8|9|10|40:41:32(qc=5)
REM 
CELL 1.54180    6.87154    6.87154    5.64054  122.58557  122.58557   96.65229
LATT -1
SFAC Li O  S  Fe 
Li     1 -0.3750230000000  0.1249770000000  0.2499540000000 1.0  -0.10
Li     1  0.1249770000000 -0.3750230000000 -0.7500460000000 1.0  -0.10
O      2  0.2158690000000  0.2158690000000  0.4317370000000 1.0   0.29
S      3 -0.0964270000000  0.5468120000000  0.4503850000000 1.0   0.13
S      3  0.5468120000000 -0.0964270000000  0.4503850000000 1.0   0.13
Fe     4  0.2630550000000 -0.4767380000000 -0.2136840000000 1.0   2.80
Fe     4 -0.4767380000000  0.2630550000000 -0.2136840000000 1.0   2.80
END
