TITL LFSO-Li4Fe3S2O3-201001-115332-b3e24e -0.0158 403.955366 -1.06228156E+004 -21.2943 21.8255 24 (C2) n - 1
REM
REM Run started: Fri, 02 Oct 2020 07:22:46 +0100 in /lustre/scratch/uccabz1/launch_tmp/launcher_2020-10-01-10-53-29-838731
REM CASTEP 20.1 from code version af48c487+ pr-geom-scf-spinfix Tue Jun 2 15:39:59 2020 +0100
REM Functional Perdew Burke Ernzerhof Relativity Koelling-Harmon Dispersion off
REM Cut-off 340.0000 eV Grid scale 1.7500 Gmax 16.5316 1/A FBSC none
REM MP grid 3 3 2 Offset 0.000 0.000 0.000 No. kpts 6 Spacing 0.07
REM Total runtime: 70320 s
REM Overall efficiency: 94.6364 %
REM
REM
REM
REM compiler GCC version 4.9.2
REM options -cpp -iprefix /lustre/shared/ucl/apps/gcc/4.9.2/bin/../lib/gcc/x86_64-unknown-linux-gnu/4.9.2/ -mtune=corei7 -march=x86-64 -g -Og
REM COMMAND_LINE
REM seed 1730235286 -806804986 1240197268 1380684538 2108378964 -1860977571 -1318403019 -722705043 -615679945 2115963369 781843087 -1864754201
REM
REM S 3|1.8|5|6|7|30:31:32(qc=5)
REM O 2|1.5|12|13|15|20:21(qc=5)
REM Li 1|1.3|8|9|10|10U:20(qc=5)
REM Fe 3|2.2|2.0|1.0|8|9|10|40:41:32(qc=5)
REM 
CELL 1.54180    6.16390    6.16390   11.91384  106.94354  106.94354   96.74177
LATT -1
SFAC Li O  S  Fe 
Li     1 -0.0856480000000 -0.0880500000000 -0.1135220000000 1.0   0.02
Li     1  0.0880500000000  0.0856480000000  0.1135220000000 1.0   0.02
Li     1 -0.1459520000000 -0.1978110000000  0.1563350000000 1.0   0.05
Li     1  0.1978110000000  0.1459520000000 -0.1563350000000 1.0   0.05
Li     1  0.3107890000000  0.1932520000000  0.4260810000000 1.0   0.04
Li     1 -0.1932520000000 -0.3107890000000 -0.4260810000000 1.0   0.04
Li     1 -0.1513400000000 -0.0317760000000  0.3564540000000 1.0  -0.03
Li     1  0.0317760000000  0.1513400000000 -0.3564540000000 1.0  -0.03
O      2  0.3105050000000  0.0340990000000 -0.2932240000000 1.0  -0.29
O      2 -0.0340990000000 -0.3105050000000  0.2932240000000 1.0  -0.29
O      2  0.1585370000000  0.2006540000000 -0.0023660000000 1.0  -0.31
O      2 -0.2006540000000 -0.1585370000000  0.0023660000000 1.0  -0.31
O      2 -0.1213130000000 -0.0537710000000 -0.2758160000000 1.0  -0.23
O      2  0.0537710000000  0.1213130000000  0.2758160000000 1.0  -0.23
S      3  0.0803420000000  0.4384070000000  0.5317620000000 1.0  -0.16
S      3 -0.4384070000000 -0.0803420000000 -0.5317620000000 1.0  -0.16
S      3  0.1396750000000 -0.4518700000000 -0.1588270000000 1.0  -0.10
S      3  0.4518700000000 -0.1396750000000  0.1588270000000 1.0  -0.10
Fe     4 -0.4174990000000 -0.0173130000000 -0.3203510000000 1.0  -3.34
Fe     4  0.0173130000000  0.4174990000000  0.3203510000000 1.0  -3.34
Fe     4  0.2749050000000 -0.2634040000000 -0.2782640000000 1.0  -3.21
Fe     4  0.2634040000000 -0.2749050000000  0.2782640000000 1.0  -3.21
Fe     4  0.2310490000000 -0.4946410000000  0.0441920000000 1.0  -3.09
Fe     4  0.4946410000000 -0.2310490000000 -0.0441920000000 1.0  -3.09
END
