TITL LFSO-Li3Fe3SO5-201002-133944-87fdd4 -0.0150 324.015060 -1.13659847E+004 22.0220 22.2956 24 (P1) n - 1
REM
REM Run started: Fri, 02 Oct 2020 20:56:52 +0100 in /scratch/scratch/mmm0366/launch_tmp/launcher_2020-10-02-12-39-42-716251
REM CASTEP 19.11| from code version Version unavailable
REM Functional Perdew Burke Ernzerhof Relativity Koelling-Harmon Dispersion off
REM Cut-off 340.0000 eV Grid scale 1.7500 Gmax 16.5316 1/A FBSC none
REM MP grid 3 3 2 Offset 0.000 0.000 0.000 No. kpts 5 Spacing 0.07
REM Total runtime: 29110.5 s
REM Overall efficiency: 65.8333 %
REM
REM
REM
REM compiler GCC version 4.9.2
REM options -cpp -iprefix /scratch/UCL/applications/gcc/4.9.2/bin/../lib/gcc/x86_64-unknown-linux-gnu/4.9.2/ -mtune=corei7 -march=x86-64 -g -O2
REM COMMAND_LINE
REM seed 1891308896 -453657815 1680367622 -238003247 1387340829 2069964511 1131490767 1171743003 -1313682694 1300267882 804767985 1978855839
REM
REM S 3|1.8|5|6|7|30:31:32(qc=5)
REM O 2|1.5|12|13|15|20:21(qc=5)
REM Li 1|1.3|8|9|10|10U:20(qc=5)
REM Fe 3|2.2|2.0|1.0|8|9|10|40:41:32(qc=5)
REM 
CELL 1.54180    7.15428    7.15428    7.30975   90.00000   90.00000  120.00000
LATT -1
SFAC Li O  S  Fe 
Li     1  0.4305500000000  0.3304980000000 -0.3183400000000 1.0  -0.03
Li     1 -0.1000520000000 -0.4305500000000 -0.3183400000000 1.0  -0.03
Li     1 -0.3304980000000  0.1000520000000 -0.3183400000000 1.0  -0.03
Li     1  0.3290430000000  0.0000460000000 -0.6137160000000 1.0   0.00
Li     1 -0.3289980000000 -0.3290430000000 -0.6137160000000 1.0   0.00
Li     1 -0.0000460000000  0.3289980000000 -0.6137160000000 1.0   0.00
O      2  0.1145860000000  0.3870690000000  0.1458410000000 1.0   0.32
O      2  0.2724830000000 -0.1145860000000  0.1458410000000 1.0   0.32
O      2 -0.3870690000000 -0.2724830000000  0.1458410000000 1.0   0.32
O      2  0.3877900000000  0.0537100000000  0.6332800000000 1.0   0.16
O      2 -0.3340800000000 -0.3877900000000  0.6332800000000 1.0   0.16
O      2 -0.0537100000000  0.3340800000000  0.6332800000000 1.0   0.16
O      2 -0.0483620000000 -0.2600620000000 -0.1072550000000 1.0   0.25
O      2 -0.2117000000000  0.0483620000000 -0.1072550000000 1.0   0.25
O      2  0.2600620000000  0.2117000000000 -0.1072550000000 1.0   0.25
O      2 -0.3333330000000  0.3333330000000  0.0704340000000 1.0   0.22
S      3  0.3333330000000 -0.3333330000000 -0.1957590000000 1.0   0.18
S      3 -0.3333330000000  0.3333330000000 -0.6948950000000 1.0   0.13
Fe     4  0.0446810000000  0.3099060000000 -0.1428270000000 1.0   2.85
Fe     4  0.2652260000000 -0.0446810000000 -0.1428270000000 1.0   2.85
Fe     4 -0.3099060000000 -0.2652260000000 -0.1428270000000 1.0   2.85
Fe     4  0.0348830000000  0.5919230000000  0.0648640000000 1.0   3.62
Fe     4 -0.4429600000000 -0.0348830000000  0.0648640000000 1.0   3.62
Fe     4 -0.5919230000000  0.4429600000000  0.0648640000000 1.0   3.62
END
