TITL LFSO-Li4FeS2O-200910-113341-95ed0b 0.1138 449.894725 -5.41579732E+003 7.98317 8.32062 16 (P2) n - 1
REM
REM Run started: Thu, 10 Sep 2020 19:32:14 +0100 in /lustre/scratch/uccabz1/launch_tmp/launcher_2020-09-10-10-33-38-789367
REM CASTEP 20.1 from code version af48c487+ pr-geom-scf-spinfix Tue Jun 2 15:39:59 2020 +0100
REM Functional Perdew Burke Ernzerhof Relativity Koelling-Harmon Dispersion off
REM Cut-off 340.0000 eV Grid scale 1.7500 Gmax 16.5316 1/A FBSC none
REM MP grid 4 3 1 Offset 0.000 0.000 0.000 No. kpts 4 Spacing 0.07
REM Total runtime: 31841.5 s
REM Overall efficiency: 95.9167 %
REM
REM
REM
REM compiler GCC version 4.9.2
REM options -cpp -iprefix /lustre/shared/ucl/apps/gcc/4.9.2/bin/../lib/gcc/x86_64-unknown-linux-gnu/4.9.2/ -mtune=corei7 -march=x86-64 -g -Og
REM COMMAND_LINE
REM seed 24895645 -853009453 521717074 1002941729 -1139002749 1947201675 1093744729 -2066353176 513567158 1268348821 -1211947577 -1533072991
REM
REM S 3|1.8|5|6|7|30:31:32(qc=5)
REM O 2|1.5|12|13|15|20:21(qc=5)
REM Li 1|1.3|8|9|10|10U:20(qc=5)
REM Fe 3|2.2|2.0|1.0|8|9|10|40:41:32(qc=5)
REM 
CELL 1.54180    3.63627    5.94296   21.68437   90.00000  106.24507   90.00000
LATT -1
SFAC Li O  S  Fe 
Li     1  0.6485450000000 -0.4143150000000  0.3447210000000 1.0   0.02
Li     1 -0.6485450000000 -0.4143150000000 -0.3447210000000 1.0   0.02
Li     1  0.1622180000000 -0.2328790000000 -0.0825430000000 1.0   0.00
Li     1 -0.1622180000000 -0.2328790000000  0.0825430000000 1.0   0.00
Li     1 -0.5048940000000 -0.0493900000000  0.2406230000000 1.0  -0.07
Li     1  0.5048940000000 -0.0493900000000 -0.2406230000000 1.0  -0.07
Li     1  0.4019180000000  0.4866430000000  0.2106950000000 1.0  -0.02
Li     1 -0.4019180000000  0.4866430000000 -0.2106950000000 1.0  -0.02
O      2 -0.4364620000000  0.3148450000000  0.2926580000000 1.0   0.23
O      2  0.4364620000000  0.3148450000000 -0.2926580000000 1.0   0.23
S      3 -0.4331330000000 -0.2343760000000 -0.1415950000000 1.0   0.01
S      3  0.4331330000000 -0.2343760000000  0.1415950000000 1.0   0.01
S      3 -0.1152290000000 -0.1635620000000 -0.3218890000000 1.0   0.27
S      3  0.1152290000000 -0.1635620000000  0.3218890000000 1.0   0.27
Fe     4  0.0980310000000  0.2070570000000  0.3111130000000 1.0   3.53
Fe     4 -0.0980310000000  0.2070570000000 -0.3111130000000 1.0   3.53
END
