TITL LFSO-Li2Fe2SO3-200913-072511-072ce1 -0.0541 206.526382 -7.48956607E+003 -8.25206 8.74701 16 (R3) n - 1
REM
REM Run started: Sun, 13 Sep 2020 12:09:44 +0100 in /lustre/scratch/uccabz1/launch_tmp/launcher_2020-09-13-06-25-09-239238
REM CASTEP 20.1 from code version af48c487+ pr-geom-scf-spinfix Tue Jun 2 15:39:59 2020 +0100
REM Functional Perdew Burke Ernzerhof Relativity Koelling-Harmon Dispersion off
REM Cut-off 340.0000 eV Grid scale 1.7500 Gmax 16.5316 1/A FBSC none
REM MP grid 3 3 3 Offset 0.000 0.000 0.000 No. kpts 6 Spacing 0.07
REM Total runtime: 17145.6 s
REM Overall efficiency: 96.3333 %
REM
REM
REM
REM compiler GCC version 4.9.2
REM options -cpp -iprefix /lustre/shared/ucl/apps/gcc/4.9.2/bin/../lib/gcc/x86_64-unknown-linux-gnu/4.9.2/ -mtune=corei7 -march=x86-64 -g -Og
REM COMMAND_LINE
REM seed 275983369 -1836286119 -1701746107 1067510058 2052745066 -2065007631 -1373421749 1211795916 -735096787 -1882029121 319209412 -1808583071
REM
REM S 3|1.8|5|6|7|30:31:32(qc=5)
REM O 2|1.5|12|13|15|20:21(qc=5)
REM Li 1|1.3|8|9|10|10U:20(qc=5)
REM Fe 3|2.2|2.0|1.0|8|9|10|40:41:32(qc=5)
REM 
CELL 1.54180    6.02051    6.02051    6.02051   78.44315   78.44315   78.44315
LATT -1
SFAC Li O  S  Fe 
Li     1 -0.4813560000000  0.1121000000000 -0.2665590000000 1.0   0.02
Li     1 -0.2665590000000 -0.4813560000000  0.1121000000000 1.0   0.02
Li     1  0.1121000000000 -0.2665590000000 -0.4813560000000 1.0   0.02
Li     1 -0.3586520000000 -0.3586520000000 -0.3586520000000 1.0   0.00
O      2 -0.4495840000000 -0.2233840000000 -0.0537580000000 1.0  -0.16
O      2 -0.0537580000000 -0.4495840000000 -0.2233840000000 1.0  -0.16
O      2 -0.2233840000000 -0.0537580000000 -0.4495840000000 1.0  -0.16
O      2 -0.2484740000000  0.1542400000000 -0.0471760000000 1.0  -0.11
O      2 -0.0471760000000 -0.2484740000000  0.1542400000000 1.0  -0.11
O      2  0.1542400000000 -0.0471760000000 -0.2484740000000 1.0  -0.11
S      3  0.4446660000000  0.4446660000000  0.4446660000000 1.0  -0.04
S      3  0.1740110000000  0.1740110000000  0.1740110000000 1.0  -0.06
Fe     4  0.2495950000000 -0.1693740000000  0.0531670000000 1.0  -2.46
Fe     4  0.0531670000000  0.2495950000000 -0.1693740000000 1.0  -2.46
Fe     4 -0.1693740000000  0.0531670000000  0.2495950000000 1.0  -2.46
Fe     4 -0.1461500000000 -0.1461500000000 -0.1461500000000 1.0  -0.03
END
