TITL LFSO-Li2FeSO-200912-020929-7918e9 0.0409 318.792464 -6.01549555E+003 11.9994 12.1417 15 (P32) n - 1
REM
REM Run started: Sat, 12 Sep 2020 04:34:46 +0100 in /lustre/scratch/uccabz1/launch_tmp/launcher_2020-09-12-01-09-27-291733
REM CASTEP 20.1 from code version af48c487+ pr-geom-scf-spinfix Tue Jun 2 15:39:59 2020 +0100
REM Functional Perdew Burke Ernzerhof Relativity Koelling-Harmon Dispersion off
REM Cut-off 340.0000 eV Grid scale 1.7500 Gmax 16.5316 1/A FBSC none
REM MP grid 2 3 3 Offset 0.000 0.000 0.000 No. kpts 5 Spacing 0.07
REM Total runtime: 8793.67 s
REM Overall efficiency: 77.5556 %
REM
REM
REM
REM compiler GCC version 4.9.2
REM options -cpp -iprefix /lustre/shared/ucl/apps/gcc/4.9.2/bin/../lib/gcc/x86_64-unknown-linux-gnu/4.9.2/ -mtune=corei7 -march=x86-64 -g -Og
REM COMMAND_LINE
REM seed -2023139036 -1981186776 -653323019 1531498546 -404388388 286147669 -918943373 -1269966532 -1872267618 326279714 -1225274113 -315631456
REM
REM S 3|1.8|5|6|7|30:31:32(qc=5)
REM O 2|1.5|12|13|15|20:21(qc=5)
REM Li 1|1.3|8|9|10|10U:20(qc=5)
REM Fe 3|2.2|2.0|1.0|8|9|10|40:41:32(qc=5)
REM 
CELL 1.54180    7.29799    7.10210    7.10210  120.00000   90.00000   90.00000
LATT -1
SFAC Li O  S  Fe 
Li     1  0.3226900000000  0.0731700000000 -0.2002500000000 1.0   0.01
Li     1 -0.0106430000000  0.2002500000000  0.2734200000000 1.0   0.01
Li     1 -0.3439770000000 -0.2734200000000 -0.0731700000000 1.0   0.01
Li     1 -0.3211750000000  0.2229560000000 -0.0253400000000 1.0   0.02
Li     1  0.3454910000000  0.0253400000000  0.2482970000000 1.0   0.02
Li     1  0.0121580000000 -0.2482970000000 -0.2229560000000 1.0   0.02
O      2 -0.1573220000000 -0.4634720000000 -0.2484590000000 1.0   0.31
O      2 -0.4906550000000  0.2484590000000 -0.2150130000000 1.0   0.31
O      2  0.1760120000000  0.2150130000000  0.4634720000000 1.0   0.31
S      3 -0.3305790000000  0.0916460000000  0.2386170000000 1.0   0.20
S      3  0.3360870000000 -0.2386170000000 -0.1469710000000 1.0   0.20
S      3  0.0027540000000  0.1469710000000 -0.0916460000000 1.0   0.20
Fe     4  0.0112490000000  0.3105310000000 -0.2864940000000 1.0   3.45
Fe     4 -0.3220850000000  0.2864940000000 -0.4029750000000 1.0   3.45
Fe     4  0.3445820000000  0.4029750000000 -0.3105310000000 1.0   3.45
END
