TITL LFSO-Li4Fe3SO4-200930-141937-5db1f2 0.0172 164.017961 -5.43696016E+003 8.04710 8.73216 12 (Pmmm) n - 1
REM
REM Run started: Wed, 30 Sep 2020 15:16:01 +0100 in /lustre/scratch/uccabz1/launch_tmp/launcher_2020-09-30-13-19-35-576275
REM CASTEP 20.1 from code version af48c487+ pr-geom-scf-spinfix Tue Jun 2 15:39:59 2020 +0100
REM Functional Perdew Burke Ernzerhof Relativity Koelling-Harmon Dispersion off
REM Cut-off 340.0000 eV Grid scale 1.7500 Gmax 16.5316 1/A FBSC none
REM MP grid 6 3 2 Offset 0.000 0.000 0.000 No. kpts 6 Spacing 0.07
REM Total runtime: 3474.44 s
REM Overall efficiency: 91.4286 %
REM
REM
REM
REM compiler GCC version 4.9.2
REM options -cpp -iprefix /lustre/shared/ucl/apps/gcc/4.9.2/bin/../lib/gcc/x86_64-unknown-linux-gnu/4.9.2/ -mtune=corei7 -march=x86-64 -g -Og
REM COMMAND_LINE
REM seed -2076737827 -2102793790 -51145536 -2111185509 1803840203 2100687680 -564423282 2092892467 915142538 -309755386 768639722 -1155646184
REM
REM S 3|1.8|5|6|7|30:31:32(qc=5)
REM O 2|1.5|12|13|15|20:21(qc=5)
REM Li 1|1.3|8|9|10|10U:20(qc=5)
REM Fe 3|2.2|2.0|1.0|8|9|10|40:41:32(qc=5)
REM 
CELL 1.54180    2.79398    6.20309    9.46367   90.00000   90.00000   90.00000
LATT -1
SFAC Li O  S  Fe 
Li     1  0.0441800000000  0.2493680000000 -0.2682010000000 1.0  -0.07
Li     1  0.0441800000000 -0.2493680000000  0.2682010000000 1.0  -0.07
Li     1  0.0441800000000  0.2493680000000  0.2682010000000 1.0  -0.07
Li     1  0.0441800000000 -0.2493680000000 -0.2682010000000 1.0  -0.07
O      2 -0.4548150000000  0.3143640000000 -0.3788030000000 1.0   0.02
O      2 -0.4548150000000 -0.3143640000000  0.3788030000000 1.0   0.02
O      2 -0.4548150000000  0.3143640000000  0.3788030000000 1.0   0.02
O      2 -0.4548150000000 -0.3143640000000 -0.3788030000000 1.0   0.02
S      3 -0.4543220000000  0.5000000000000  0.5000000000000 1.0   0.02
Fe     4  0.5521690000000 -0.3119280000000  0.0000000000000 1.0   2.82
Fe     4  0.5521690000000  0.3119280000000  0.0000000000000 1.0   2.82
Fe     4  0.0538030000000  0.0000000000000  0.0000000000000 1.0   2.57
END
