TITL LFSO-Li2Fe4S3O2-200912-033747-5c3610 0.0109 151.714596 -5.63812483E+003 -0.181543E-01 0.217155E-01 11 (P2) n - 1
REM
REM Run started: Sat, 12 Sep 2020 09:16:04 +0100 in /lustre/scratch/uccabz1/launch_tmp/launcher_2020-09-12-02-37-46-261029
REM CASTEP 20.1 from code version af48c487+ pr-geom-scf-spinfix Tue Jun 2 15:39:59 2020 +0100
REM Functional Perdew Burke Ernzerhof Relativity Koelling-Harmon Dispersion off
REM Cut-off 340.0000 eV Grid scale 1.7500 Gmax 16.5316 1/A FBSC none
REM MP grid 5 3 2 Offset 0.000 0.000 0.000 No. kpts 8 Spacing 0.07
REM Total runtime: 20342.5 s
REM Overall efficiency: 93.1818 %
REM
REM
REM
REM compiler GCC version 4.9.2
REM options -cpp -iprefix /lustre/shared/ucl/apps/gcc/4.9.2/bin/../lib/gcc/x86_64-unknown-linux-gnu/4.9.2/ -mtune=corei7 -march=x86-64 -g -Og
REM COMMAND_LINE
REM seed 923378862 -1836505169 280457142 -1037678938 2113441459 -1630870961 711289762 1716219669 -869847148 1641363520 -247134909 1276229758
REM
REM S 3|1.8|5|6|7|30:31:32(qc=5)
REM O 2|1.5|12|13|15|20:21(qc=5)
REM Li 1|1.3|8|9|10|10U:20(qc=5)
REM Fe 3|2.2|2.0|1.0|8|9|10|40:41:32(qc=5)
REM 
CELL 1.54180    3.73769    5.50453    7.90668   90.00000   90.00000  111.15125
LATT -1
SFAC Li O  S  Fe 
Li     1 -0.6343800000000  0.2052400000000  0.4216390000000 1.0  -0.00
Li     1  0.6343800000000 -0.2052400000000  0.4216390000000 1.0  -0.00
O      2  0.3287530000000  0.1519780000000 -0.0281020000000 1.0  -0.00
O      2 -0.3287530000000 -0.1519780000000 -0.0281020000000 1.0  -0.00
S      3 -0.0925760000000  0.2901470000000  0.2540530000000 1.0   0.00
S      3  0.0925760000000 -0.2901470000000  0.2540530000000 1.0   0.00
S      3  0.0000000000000  0.5000000000000 -0.2576520000000 1.0   0.00
Fe     4 -0.1297180000000  0.2402590000000 -0.0269140000000 1.0  -0.01
Fe     4  0.1297180000000 -0.2402590000000 -0.0269140000000 1.0  -0.01
Fe     4 -0.6205780000000  0.2674610000000 -0.2427440000000 1.0  -0.00
Fe     4  0.6205780000000 -0.2674610000000 -0.2427440000000 1.0  -0.00
END
