TITL LFSO-Li2Fe4S2O3-200912-075825-9b79ad -0.0182 144.621051 -5.77620152E+003 4.52905 12.1066 11 (P31m) n - 1
REM
REM Run started: Sat, 12 Sep 2020 10:17:12 +0100 in /lustre/scratch/uccabz1/launch_tmp/launcher_2020-09-12-06-58-23-201805
REM CASTEP 20.1 from code version af48c487+ pr-geom-scf-spinfix Tue Jun 2 15:39:59 2020 +0100
REM Functional Perdew Burke Ernzerhof Relativity Koelling-Harmon Dispersion off
REM Cut-off 340.0000 eV Grid scale 1.7500 Gmax 16.5316 1/A FBSC none
REM MP grid 3 3 3 Offset 0.000 0.000 0.000 No. kpts 8 Spacing 0.07
REM Total runtime: 8362.9 s
REM Overall efficiency: 85.5556 %
REM
REM
REM
REM compiler GCC version 4.9.2
REM options -cpp -iprefix /lustre/shared/ucl/apps/gcc/4.9.2/bin/../lib/gcc/x86_64-unknown-linux-gnu/4.9.2/ -mtune=corei7 -march=x86-64 -g -Og
REM COMMAND_LINE
REM seed -1777449526 -322187151 1076336859 421032872 -1159718322 186403506 1579696685 61216871 -1863214235 -1129197290 847932763 -1320014405
REM
REM S 3|1.8|5|6|7|30:31:32(qc=5)
REM O 2|1.5|12|13|15|20:21(qc=5)
REM Li 1|1.3|8|9|10|10U:20(qc=5)
REM Fe 3|2.2|2.0|1.0|8|9|10|40:41:32(qc=5)
REM 
CELL 1.54180    5.40221    5.55987    5.55987  120.00000   90.00000   90.00000
LATT -1
SFAC Li O  S  Fe 
Li     1 -0.0133360000000 -0.0000000000000  0.0000000000000 1.0  -0.00
Li     1 -0.0138450000000 -0.3333330000000  0.3333330000000 1.0  -0.01
O      2 -0.0523870000000  0.0394110000000  0.3730720000000 1.0   0.02
O      2 -0.0523870000000  0.3336600000000 -0.0394110000000 1.0   0.02
O      2 -0.0523870000000 -0.3730720000000 -0.3336600000000 1.0   0.02
S      3  0.4448720000000 -0.3333330000000  0.3333330000000 1.0   0.02
S      3 -0.5513010000000 -0.0000000000000  0.0000000000000 1.0   0.02
Fe     4 -0.3889530000000  0.0769110000000 -0.5884980000000 1.0   2.71
Fe     4 -0.3889530000000  0.3345910000000 -0.0769110000000 1.0   2.71
Fe     4 -0.3889530000000  0.5884980000000 -0.3345910000000 1.0   2.71
Fe     4  0.1261340000000  0.3333330000000 -0.3333330000000 1.0  -3.69
END
