TITL LFSO-Li2Fe4S3O2-200912-054433-d11606 0.0276 349.286401 -1.12819950E+004 19.9956 23.0475 22 (P3) n - 1
REM
REM Run started: Sat, 12 Sep 2020 21:46:51 +0100 in /lustre/scratch/uccabz1/launch_tmp/launcher_2020-09-12-07-43-34-487745
REM CASTEP 20.1 from code version af48c487+ pr-geom-scf-spinfix Tue Jun 2 15:39:59 2020 +0100
REM Functional Perdew Burke Ernzerhof Relativity Koelling-Harmon Dispersion off
REM Cut-off 340.0000 eV Grid scale 1.7500 Gmax 16.5316 1/A FBSC none
REM MP grid 3 3 2 Offset 0.000 0.000 0.000 No. kpts 5 Spacing 0.07
REM Total runtime: 49884.3 s
REM Overall efficiency: 75.7778 %
REM
REM
REM
REM compiler GCC version 4.9.2
REM options -cpp -iprefix /lustre/shared/ucl/apps/gcc/4.9.2/bin/../lib/gcc/x86_64-unknown-linux-gnu/4.9.2/ -mtune=corei7 -march=x86-64 -g -Og
REM COMMAND_LINE
REM seed 1596523186 1590391949 656993454 1171253192 1963508311 1535380033 -870830853 -1900680604 1569508084 26216590 789548492 1811236435
REM
REM S 3|1.8|5|6|7|30:31:32(qc=5)
REM O 2|1.5|12|13|15|20:21(qc=5)
REM Li 1|1.3|8|9|10|10U:20(qc=5)
REM Fe 3|2.2|2.0|1.0|8|9|10|40:41:32(qc=5)
REM 
CELL 1.54180    7.05308    7.05308    8.10762   90.00000   90.00000  120.00000
LATT -1
SFAC Li O  S  Fe 
Li     1  0.3841650000000  0.3573630000000 -0.1193720000000 1.0  -0.02
Li     1 -0.0268010000000 -0.3841650000000 -0.1193720000000 1.0  -0.02
Li     1 -0.3573630000000  0.0268010000000 -0.1193720000000 1.0  -0.02
Li     1 -0.0000000000000  0.0000000000000 -0.3192600000000 1.0  -0.06
O      2 -0.0452600000000 -0.2481720000000  0.0888380000000 1.0   0.23
O      2 -0.2029120000000  0.0452600000000  0.0888380000000 1.0   0.23
O      2  0.2481720000000  0.2029120000000  0.0888380000000 1.0   0.23
O      2 -0.0000000000000  0.0000000000000  0.4603240000000 1.0   0.34
S      3  0.2728850000000 -0.0380030000000 -0.2151190000000 1.0   0.10
S      3 -0.3108890000000 -0.2728850000000 -0.2151190000000 1.0   0.10
S      3  0.0380030000000  0.3108890000000 -0.2151190000000 1.0   0.10
S      3 -0.4980570000000 -0.5077070000000  0.3761390000000 1.0   0.02
S      3 -0.0096500000000  0.4980570000000  0.3761390000000 1.0   0.02
S      3  0.5077070000000  0.0096500000000  0.3761390000000 1.0   0.02
Fe     4  0.0609300000000  0.2962180000000  0.1824940000000 1.0   3.30
Fe     4  0.2352880000000 -0.0609300000000  0.1824940000000 1.0   3.30
Fe     4 -0.2962180000000 -0.2352880000000  0.1824940000000 1.0   3.30
Fe     4 -0.3194590000000 -0.1743730000000  0.4897760000000 1.0   3.15
Fe     4  0.1450850000000  0.3194590000000  0.4897760000000 1.0   3.15
Fe     4  0.1743730000000 -0.1450850000000  0.4897760000000 1.0   3.15
Fe     4 -0.0000000000000  0.0000000000000 -0.0455250000000 1.0   0.90
Fe     4  0.3333330000000 -0.3333330000000  0.3128950000000 1.0  -1.53
END
