TITL LFSO-LiFe3S2O3-200909-161743-96c0ef 0.0129 261.489856 -9.42410873E+003 -0.618971E-01 11.3417 18 (Pnc2) n - 1
REM
REM Run started: Wed, 09 Sep 2020 19:33:58 +0100 in /lustre/scratch/uccabz1/launch_tmp/launcher_2020-09-09-15-17-41-508392
REM CASTEP 20.1 from code version af48c487+ pr-geom-scf-spinfix Tue Jun 2 15:39:59 2020 +0100
REM Functional Perdew Burke Ernzerhof Relativity Koelling-Harmon Dispersion off
REM Cut-off 340.0000 eV Grid scale 1.7500 Gmax 16.5316 1/A FBSC none
REM MP grid 5 2 2 Offset 0.000 0.000 0.000 No. kpts 3 Spacing 0.07
REM Total runtime: 11858.9 s
REM Overall efficiency: 94.6667 %
REM
REM
REM
REM compiler GCC version 4.9.2
REM options -cpp -iprefix /lustre/shared/ucl/apps/gcc/4.9.2/bin/../lib/gcc/x86_64-unknown-linux-gnu/4.9.2/ -mtune=corei7 -march=x86-64 -g -Og
REM COMMAND_LINE
REM seed 1662277232 -913828707 -1170862410 -1465874181 1998028491 152418367 -1056358630 1926551888 5717012 -1955083149 -335474707 1226055847
REM
REM S 3|1.8|5|6|7|30:31:32(qc=5)
REM O 2|1.5|12|13|15|20:21(qc=5)
REM Li 1|1.3|8|9|10|10U:20(qc=5)
REM Fe 3|2.2|2.0|1.0|8|9|10|40:41:32(qc=5)
REM 
CELL 1.54180    3.21696    9.65793    8.41636   90.00000   90.00000   90.00000
LATT -1
SFAC Li O  S  Fe 
Li     1  0.0000000000000 -0.5609840000000  0.0000000000000 1.0  -0.02
Li     1  0.0000000000000 -0.0609840000000  0.5000000000000 1.0  -0.02
O      2 -0.4500750000000  0.0151430000000 -0.3559200000000 1.0  -0.07
O      2  0.4500750000000  0.0151430000000  0.3559200000000 1.0  -0.07
O      2 -0.4500750000000  0.5151430000000 -0.1440800000000 1.0  -0.07
O      2  0.4500750000000  0.5151430000000  0.1440800000000 1.0  -0.07
O      2 -0.5000000000000  0.0124080000000  0.0000000000000 1.0  -0.11
O      2  0.5000000000000 -0.4875920000000  0.5000000000000 1.0  -0.11
S      3 -0.0286570000000 -0.2281900000000  0.1916360000000 1.0   0.02
S      3  0.0286570000000 -0.2281900000000 -0.1916360000000 1.0   0.02
S      3 -0.0286570000000  0.2718100000000  0.3083640000000 1.0   0.02
S      3  0.0286570000000  0.2718100000000 -0.3083640000000 1.0   0.02
Fe     4 -0.4737530000000  0.4231020000000 -0.3212570000000 1.0  -1.23
Fe     4  0.4737530000000  0.4231020000000  0.3212570000000 1.0  -1.23
Fe     4 -0.4737530000000 -0.0768980000000 -0.1787430000000 1.0  -1.23
Fe     4  0.4737530000000 -0.0768980000000  0.1787430000000 1.0  -1.23
Fe     4  0.5000000000000 -0.3238140000000  0.0000000000000 1.0   2.66
Fe     4 -0.5000000000000  0.1761860000000  0.5000000000000 1.0   2.66
END
