TITL LFSO-Li3Fe3S5O-201001-233410-a0607b 0.0233 243.393746 -5.14241367E+003 3.81081 4.24464 12 (P3) n - 1
REM
REM Run started: Fri, 02 Oct 2020 03:14:04 +0100 in /lustre/scratch/uccabz1/launch_tmp/launcher_2020-10-01-22-34-08-491711
REM CASTEP 20.1 from code version af48c487+ pr-geom-scf-spinfix Tue Jun 2 15:39:59 2020 +0100
REM Functional Perdew Burke Ernzerhof Relativity Koelling-Harmon Dispersion off
REM Cut-off 340.0000 eV Grid scale 1.7500 Gmax 16.5316 1/A FBSC none
REM MP grid 4 4 2 Offset 0.000 0.000 0.000 No. kpts 16 Spacing 0.07
REM Total runtime: 13289.7 s
REM Overall efficiency: 95.5 %
REM
REM
REM
REM compiler GCC version 4.9.2
REM options -cpp -iprefix /lustre/shared/ucl/apps/gcc/4.9.2/bin/../lib/gcc/x86_64-unknown-linux-gnu/4.9.2/ -mtune=corei7 -march=x86-64 -g -Og
REM COMMAND_LINE
REM seed -100189914 431244173 -947520433 138909823 856394838 371058880 453941004 1803691227 -365197392 -749464087 467569939 -811399707
REM
REM S 3|1.8|5|6|7|30:31:32(qc=5)
REM O 2|1.5|12|13|15|20:21(qc=5)
REM Li 1|1.3|8|9|10|10U:20(qc=5)
REM Fe 3|2.2|2.0|1.0|8|9|10|40:41:32(qc=5)
REM 
CELL 1.54180    4.99758    4.99758   11.25276   90.00000   90.00000  120.00000
LATT -1
SFAC Li O  S  Fe 
Li     1 -0.4496140000000 -0.4495750000000  0.3745120000000 1.0   0.01
Li     1  0.4495750000000 -0.0000390000000  0.3745120000000 1.0   0.01
Li     1  0.0000390000000  0.4496140000000  0.3745120000000 1.0   0.01
O      2  0.0000000000000 -0.0000000000000 -0.3111860000000 1.0  -0.02
S      3  0.4521400000000  0.4624210000000  0.1694800000000 1.0   0.00
S      3 -0.4624210000000 -0.0102810000000  0.1694800000000 1.0   0.00
S      3  0.0102810000000 -0.4521400000000  0.1694800000000 1.0   0.00
S      3  0.3333330000000 -0.3333330000000 -0.4356640000000 1.0  -0.03
S      3  0.0000000000000 -0.0000000000000  0.4273630000000 1.0   0.10
Fe     4 -0.2291470000000  0.1096720000000 -0.4089670000000 1.0   1.25
Fe     4 -0.1096720000000 -0.3388190000000 -0.4089670000000 1.0   1.25
Fe     4  0.3388190000000  0.2291470000000 -0.4089670000000 1.0   1.25
END
