TITL LFSO-Li4Fe2S3O-200911-010709-a64fa7 0.0025 166.631260 -3.87472748E+003 7.72304 7.77694 10 (Cmmm) n - 1
REM
REM Run started: Fri, 11 Sep 2020 03:44:49 +0100 in /lustre/scratch/uccabz1/launch_tmp/launcher_2020-09-11-00-07-07-812365
REM CASTEP 20.1 from code version af48c487+ pr-geom-scf-spinfix Tue Jun 2 15:39:59 2020 +0100
REM Functional Perdew Burke Ernzerhof Relativity Koelling-Harmon Dispersion off
REM Cut-off 340.0000 eV Grid scale 1.7500 Gmax 16.5316 1/A FBSC none
REM MP grid 4 3 2 Offset 0.000 0.000 0.000 No. kpts 6 Spacing 0.07
REM Total runtime: 10217 s
REM Overall efficiency: 95.6923 %
REM
REM
REM
REM compiler GCC version 4.9.2
REM options -cpp -iprefix /lustre/shared/ucl/apps/gcc/4.9.2/bin/../lib/gcc/x86_64-unknown-linux-gnu/4.9.2/ -mtune=corei7 -march=x86-64 -g -Og
REM COMMAND_LINE
REM seed 1212926378 397249 967408444 -9947807 1176015954 572513619 -830872308 1609109232 -914369010 -1367878310 529085116 1303350891
REM
REM S 3|1.8|5|6|7|30:31:32(qc=5)
REM O 2|1.5|12|13|15|20:21(qc=5)
REM Li 1|1.3|8|9|10|10U:20(qc=5)
REM Fe 3|2.2|2.0|1.0|8|9|10|40:41:32(qc=5)
REM 
CELL 1.54180    3.88759    6.07285    7.68347  113.27783   90.00000   90.00000
LATT -1
SFAC Li O  S  Fe 
Li     1  0.0000000000000  0.1614090000000 -0.2479460000000 1.0  -0.04
Li     1  0.0000000000000 -0.1614090000000  0.2479460000000 1.0  -0.04
Li     1  0.0000000000000  0.4093550000000  0.2479460000000 1.0  -0.04
Li     1  0.0000000000000 -0.4093550000000 -0.2479460000000 1.0  -0.04
O      2  0.0000000000000 -0.5000000000000  0.0000000000000 1.0   0.32
S      3 -0.5000000000000  0.3434750000000 -0.3130500000000 1.0   0.22
S      3 -0.5000000000000 -0.3434750000000  0.3130500000000 1.0   0.22
S      3  0.0000000000000  0.0000000000000  0.0000000000000 1.0   0.13
Fe     4  0.5000000000000  0.3064160000000  0.0000000000000 1.0   3.50
Fe     4  0.5000000000000 -0.3064160000000  0.0000000000000 1.0   3.50
END
