TITL LFSO-Li2Fe4S4O-200911-205154-225ea9 2.1553 317.442372 -1.10134809E+004 0.614937E-01 0.181676 22 (P-1) n - 1
REM
REM Run started: Mon, 14 Sep 2020 15:41:48 +0100 in /lustre/scratch/uccabz1/launch_tmp/launcher_2020-09-14-11-23-02-413399
REM CASTEP 20.1 from code version af48c487+ pr-geom-scf-spinfix Tue Jun 2 15:39:59 2020 +0100
REM Functional Perdew Burke Ernzerhof Relativity Koelling-Harmon Dispersion off
REM Cut-off 340.0000 eV Grid scale 1.7500 Gmax 16.5316 1/A FBSC none
REM MP grid 3 3 2 Offset 0.000 0.000 0.000 No. kpts 9 Spacing 0.07
REM Total runtime: 256981 s
REM Overall efficiency: 99 %
REM
REM
REM
REM compiler GCC version 4.9.2
REM options -cpp -iprefix /lustre/shared/ucl/apps/gcc/4.9.2/bin/../lib/gcc/x86_64-unknown-linux-gnu/4.9.2/ -mtune=corei7 -march=x86-64 -g -Og
REM COMMAND_LINE
REM seed 734145164 1604639920 -2653650 1242270407 -1046511436 2039348522 -1398054828 1852126884 -1227185299 142749623 -1696736391 -1246565103
REM
REM S 3|1.8|5|6|7|30:31:32(qc=5)
REM O 2|1.5|12|13|15|20:21(qc=5)
REM Li 1|1.3|8|9|10|10U:20(qc=5)
REM Fe 3|2.2|2.0|1.0|8|9|10|40:41:32(qc=5)
REM 
CELL 1.54180    6.56996    7.64068    8.88241   79.66848  129.38111  112.39249
LATT -1
SFAC Li O  S  Fe 
Li     1 -0.2091920000000  0.0026220000000 -0.3521790000000 1.0  -0.00
Li     1  0.2091920000000 -0.0026220000000  0.3521790000000 1.0  -0.00
Li     1 -0.2501490000000  0.4874760000000  0.2442830000000 1.0   0.00
Li     1  0.2501490000000 -0.4874760000000 -0.2442830000000 1.0   0.00
O      2  0.1688250000000  0.0121160000000 -0.1550760000000 1.0  -0.00
O      2 -0.1688250000000 -0.0121160000000  0.1550760000000 1.0  -0.00
S      3  0.3089970000000 -0.2463860000000 -0.4241050000000 1.0   0.00
S      3 -0.3089970000000  0.2463860000000  0.4241050000000 1.0   0.00
S      3 -0.1854410000000 -0.3416470000000 -0.3713900000000 1.0  -0.00
S      3  0.1854410000000  0.3416470000000  0.3713900000000 1.0  -0.00
S      3  0.2296910000000  0.3707580000000 -0.0006780000000 1.0   0.00
S      3 -0.2296910000000 -0.3707580000000  0.0006780000000 1.0   0.00
S      3 -0.4100990000000  0.1553770000000 -0.2180810000000 1.0   0.00
S      3  0.4100990000000 -0.1553770000000  0.2180810000000 1.0   0.00
Fe     4 -0.3892770000000  0.3546080000000 -0.4204560000000 1.0   0.02
Fe     4  0.3892770000000 -0.3546080000000  0.4204560000000 1.0   0.02
Fe     4  0.0321450000000 -0.2184930000000 -0.0842880000000 1.0   0.04
Fe     4 -0.0321450000000  0.2184930000000  0.0842880000000 1.0   0.04
Fe     4  0.2089590000000 -0.1026390000000 -0.2933030000000 1.0  -0.01
Fe     4 -0.2089590000000  0.1026390000000  0.2933030000000 1.0  -0.01
Fe     4 -0.2992560000000 -0.1066730000000 -0.0809690000000 1.0  -0.01
Fe     4  0.2992560000000  0.1066730000000  0.0809690000000 1.0  -0.01
END
