TITL LFSO-Li3FeSO2-200911-154955-7641a9 0.0084 330.926643 -7.92130876E+003 -11.0073 11.5148 21 (P-4) n - 1
REM
REM Run started: Fri, 11 Sep 2020 22:51:37 +0100 in /lustre/scratch/uccabz1/launch_tmp/launcher_2020-09-11-14-49-53-467010
REM CASTEP 20.1 from code version af48c487+ pr-geom-scf-spinfix Tue Jun 2 15:39:59 2020 +0100
REM Functional Perdew Burke Ernzerhof Relativity Koelling-Harmon Dispersion off
REM Cut-off 340.0000 eV Grid scale 1.7500 Gmax 16.5316 1/A FBSC none
REM MP grid 3 3 2 Offset 0.000 0.000 0.000 No. kpts 3 Spacing 0.07
REM Total runtime: 25844.2 s
REM Overall efficiency: 97.4286 %
REM
REM
REM
REM compiler GCC version 4.9.2
REM options -cpp -iprefix /lustre/shared/ucl/apps/gcc/4.9.2/bin/../lib/gcc/x86_64-unknown-linux-gnu/4.9.2/ -mtune=corei7 -march=x86-64 -g -Og
REM COMMAND_LINE
REM seed 568733796 -529898830 -906843182 1992509780 2054085011 471396196 -1203002977 673477471 393257829 1922329841 -1063734855 -1428150008
REM
REM S 3|1.8|5|6|7|30:31:32(qc=5)
REM O 2|1.5|12|13|15|20:21(qc=5)
REM Li 1|1.3|8|9|10|10U:20(qc=5)
REM Fe 3|2.2|2.0|1.0|8|9|10|40:41:32(qc=5)
REM 
CELL 1.54180    4.95853    4.95853   13.45939   90.00000   90.00000   90.00000
LATT -1
SFAC Li O  S  Fe 
Li     1 -0.2544690000000 -0.4119120000000 -0.3534090000000 1.0   0.02
Li     1  0.2544690000000  0.4119120000000 -0.3534090000000 1.0   0.02
Li     1 -0.4119120000000  0.2544690000000  0.3534090000000 1.0   0.02
Li     1  0.4119120000000 -0.2544690000000  0.3534090000000 1.0   0.02
Li     1  0.0585540000000 -0.2633630000000  0.1980710000000 1.0   0.01
Li     1 -0.0585540000000  0.2633630000000  0.1980710000000 1.0   0.01
Li     1 -0.2633630000000 -0.0585540000000 -0.1980710000000 1.0   0.01
Li     1  0.2633630000000  0.0585540000000 -0.1980710000000 1.0   0.01
Li     1  0.0000000000000 -0.0000000000000  0.0000000000000 1.0  -0.01
O      2  0.2467860000000  0.4342750000000 -0.2052360000000 1.0  -0.23
O      2 -0.2467860000000 -0.4342750000000 -0.2052360000000 1.0  -0.23
O      2  0.4342750000000 -0.2467860000000  0.2052360000000 1.0  -0.23
O      2 -0.4342750000000  0.2467860000000  0.2052360000000 1.0  -0.23
O      2 -0.5000000000000 -0.0000000000000 -0.0920290000000 1.0  -0.22
O      2  0.0000000000000 -0.5000000000000  0.0920290000000 1.0  -0.22
S      3  0.0000000000000 -0.0000000000000 -0.3398720000000 1.0  -0.16
S      3  0.0000000000000 -0.0000000000000  0.3398720000000 1.0  -0.16
S      3 -0.5000000000000 -0.5000000000000  0.5000000000000 1.0  -0.26
Fe     4 -0.5000000000000  0.5000000000000  0.1243410000000 1.0  -2.81
Fe     4 -0.5000000000000  0.5000000000000 -0.1243410000000 1.0  -2.81
Fe     4  0.0000000000000 -0.0000000000000  0.5000000000000 1.0  -3.57
END
