TITL LFSO-Li5FeSO3-200910-064337-8480af -0.0509 147.170701 -3.47972260E+003 -2.99959 3.21790 10 (P3) n - 1
REM
REM Run started: Thu, 10 Sep 2020 07:16:11 +0100 in /lustre/scratch/uccabz1/launch_tmp/launcher_2020-09-10-05-43-35-132908
REM CASTEP 20.1 from code version af48c487+ pr-geom-scf-spinfix Tue Jun 2 15:39:59 2020 +0100
REM Functional Perdew Burke Ernzerhof Relativity Koelling-Harmon Dispersion off
REM Cut-off 340.0000 eV Grid scale 1.7500 Gmax 16.5316 1/A FBSC none
REM MP grid 4 3 3 Offset 0.000 0.000 0.000 No. kpts 10 Spacing 0.07
REM Total runtime: 2060.36 s
REM Overall efficiency: 74 %
REM
REM
REM
REM compiler GCC version 4.9.2
REM options -cpp -iprefix /lustre/shared/ucl/apps/gcc/4.9.2/bin/../lib/gcc/x86_64-unknown-linux-gnu/4.9.2/ -mtune=corei7 -march=x86-64 -g -Og
REM COMMAND_LINE
REM seed 959174887 -1888609005 -784416621 -2073492259 -424494516 -1473945433 1564424937 2028670788 1793891397 -468679696 84167875 -181057127
REM
REM S 3|1.8|5|6|7|30:31:32(qc=5)
REM O 2|1.5|12|13|15|20:21(qc=5)
REM Li 1|1.3|8|9|10|10U:20(qc=5)
REM Fe 3|2.2|2.0|1.0|8|9|10|40:41:32(qc=5)
REM 
CELL 1.54180    4.28795    6.29536    6.29536  120.00000   90.00000   90.00000
LATT -1
SFAC Li O  S  Fe 
Li     1 -0.2710950000000 -0.3730100000000 -0.3437350000000 1.0   0.03
Li     1 -0.2710950000000  0.3437350000000 -0.0292760000000 1.0   0.03
Li     1 -0.2710950000000  0.0292760000000  0.3730100000000 1.0   0.03
Li     1 -0.7750490000000  0.0000000000000  0.0000000000000 1.0  -0.00
Li     1  0.2159310000000 -0.3333330000000  0.3333330000000 1.0  -0.07
O      2  0.2004240000000  0.4405700000000 -0.0171540000000 1.0  -0.18
O      2  0.2004240000000  0.0171540000000 -0.5422760000000 1.0  -0.18
O      2  0.2004240000000  0.5422760000000 -0.4405700000000 1.0  -0.18
S      3 -0.2768270000000  0.0000000000000  0.0000000000000 1.0   0.01
Fe     4  0.1917020000000  0.3333330000000 -0.3333330000000 1.0  -2.51
END
