TITL LFSO-Li5FeS2O2-200920-235320-ff9025 0.0140 136.226999 -3.34776339E+003 3.00019 3.33557 10 (P-1) n - 1
REM
REM Run started: Mon, 21 Sep 2020 02:04:08 +0100 in /lustre/scratch/uccabz1/launch_tmp/launcher_2020-09-20-22-53-18-588983
REM CASTEP 20.1 from code version af48c487+ pr-geom-scf-spinfix Tue Jun 2 15:39:59 2020 +0100
REM Functional Perdew Burke Ernzerhof Relativity Koelling-Harmon Dispersion off
REM Cut-off 340.0000 eV Grid scale 1.7500 Gmax 16.5316 1/A FBSC none
REM MP grid 5 4 3 Offset 0.000 0.000 0.000 No. kpts 30 Spacing 0.07
REM Total runtime: 9001.71 s
REM Overall efficiency: 96.3333 %
REM
REM
REM
REM compiler GCC version 4.9.2
REM options -cpp -iprefix /lustre/shared/ucl/apps/gcc/4.9.2/bin/../lib/gcc/x86_64-unknown-linux-gnu/4.9.2/ -mtune=corei7 -march=x86-64 -g -Og
REM COMMAND_LINE
REM seed 305863557 551281465 -159356858 -314907752 -651588333 97968971 -1517121220 -1239141675 -1048509044 -651304526 1111045039 116335582
REM
REM S 3|1.8|5|6|7|30:31:32(qc=5)
REM O 2|1.5|12|13|15|20:21(qc=5)
REM Li 1|1.3|8|9|10|10U:20(qc=5)
REM Fe 3|2.2|2.0|1.0|8|9|10|40:41:32(qc=5)
REM 
CELL 1.54180    4.12241    6.03057    8.67139  120.85763  115.62368  103.01190
LATT -1
SFAC Li O  S  Fe 
Li     1  0.3215120000000 -0.3408790000000 -0.5038830000000 1.0   0.01
Li     1 -0.3215120000000  0.3408790000000  0.5038830000000 1.0   0.01
Li     1 -0.1923160000000 -0.0659380000000  0.2585290000000 1.0  -0.04
Li     1  0.1923160000000  0.0659380000000 -0.2585290000000 1.0  -0.04
Li     1  0.0000000000000  0.5000000000000  0.0000000000000 1.0   0.02
O      2 -0.2505300000000  0.0564130000000 -0.1957040000000 1.0   0.15
O      2  0.2505300000000 -0.0564130000000  0.1957040000000 1.0   0.15
S      3 -0.3985600000000 -0.4694810000000  0.2888840000000 1.0   0.00
S      3  0.3985600000000  0.4694810000000 -0.2888840000000 1.0   0.00
Fe     4  0.0000000000000  0.0000000000000  0.0000000000000 1.0   2.72
END
