TITL LFSO-Li2Fe4S3O2-200912-044049-41a3c7 -0.0615 223.170926 -5.63481545E+003 -4.85970 5.41162 11 (P4mm) n - 1
REM
REM Run started: Sat, 12 Sep 2020 05:41:26 +0100 in /lustre/scratch/uccabz1/launch_tmp/launcher_2020-09-12-03-40-47-330189
REM CASTEP 20.1 from code version af48c487+ pr-geom-scf-spinfix Tue Jun 2 15:39:59 2020 +0100
REM Functional Perdew Burke Ernzerhof Relativity Koelling-Harmon Dispersion off
REM Cut-off 340.0000 eV Grid scale 1.7500 Gmax 16.5316 1/A FBSC none
REM MP grid 3 3 2 Offset 0.000 0.000 0.000 No. kpts 3 Spacing 0.07
REM Total runtime: 3683.58 s
REM Overall efficiency: 92.1667 %
REM
REM
REM
REM compiler GCC version 4.9.2
REM options -cpp -iprefix /lustre/shared/ucl/apps/gcc/4.9.2/bin/../lib/gcc/x86_64-unknown-linux-gnu/4.9.2/ -mtune=corei7 -march=x86-64 -g -Og
REM COMMAND_LINE
REM seed -1832483003 -1467179467 -1941114054 513461014 757007023 -763292757 -1777424448 -532332940 -476728046 80259274 -1306419752 1230368092
REM
REM S 3|1.8|5|6|7|30:31:32(qc=5)
REM O 2|1.5|12|13|15|20:21(qc=5)
REM Li 1|1.3|8|9|10|10U:20(qc=5)
REM Fe 3|2.2|2.0|1.0|8|9|10|40:41:32(qc=5)
REM 
CELL 1.54180    4.80916    4.80916    9.64936   90.00000   90.00000   90.00000
LATT -1
SFAC Li O  S  Fe 
Li     1 -0.5000000000000 -0.0000000000000 -0.4895450000000 1.0   0.04
Li     1 -0.0000000000000  0.5000000000000 -0.4895450000000 1.0   0.04
O      2 -0.0000000000000  0.5000000000000 -0.1235460000000 1.0   0.03
O      2 -0.5000000000000 -0.0000000000000 -0.1235460000000 1.0   0.03
S      3 -0.0000000000000 -0.5000000000000  0.2747140000000 1.0  -0.53
S      3  0.5000000000000 -0.0000000000000  0.2747140000000 1.0  -0.53
S      3 -0.0000000000000 -0.0000000000000 -0.3478290000000 1.0   0.02
Fe     4 -0.2495830000000  0.2495830000000 -0.1990750000000 1.0  -0.99
Fe     4  0.2495830000000 -0.2495830000000 -0.1990750000000 1.0  -0.99
Fe     4  0.2495830000000  0.2495830000000 -0.1990750000000 1.0  -0.99
Fe     4 -0.2495830000000 -0.2495830000000 -0.1990750000000 1.0  -0.99
END
