TITL LFSO-LiFe3S2O3-200909-171802-b995af -0.0119 193.753362 -4.70965562E+003 4.83176 5.17412 9 (Fmm2) n - 1
REM
REM Run started: Wed, 09 Sep 2020 18:49:27 +0100 in /lustre/scratch/uccabz1/launch_tmp/launcher_2020-09-09-16-18-00-166136
REM CASTEP 20.1 from code version af48c487+ pr-geom-scf-spinfix Tue Jun 2 15:39:59 2020 +0100
REM Functional Perdew Burke Ernzerhof Relativity Koelling-Harmon Dispersion off
REM Cut-off 340.0000 eV Grid scale 1.7500 Gmax 16.5316 1/A FBSC none
REM MP grid 4 4 3 Offset 0.000 0.000 0.000 No. kpts 16 Spacing 0.07
REM Total runtime: 7182.94 s
REM Overall efficiency: 95.8571 %
REM
REM
REM
REM compiler GCC version 4.9.2
REM options -cpp -iprefix /lustre/shared/ucl/apps/gcc/4.9.2/bin/../lib/gcc/x86_64-unknown-linux-gnu/4.9.2/ -mtune=corei7 -march=x86-64 -g -Og
REM COMMAND_LINE
REM seed -1615446747 -987969892 -1503440051 -317055499 1548097547 -1855951957 -766078840 1805739814 1948076994 1496269795 -1811492721 1047183403
REM
REM S 3|1.8|5|6|7|30:31:32(qc=5)
REM O 2|1.5|12|13|15|20:21(qc=5)
REM Li 1|1.3|8|9|10|10U:20(qc=5)
REM Fe 3|2.2|2.0|1.0|8|9|10|40:41:32(qc=5)
REM 
CELL 1.54180    6.09168    6.09168    7.36699   98.16763   98.16763  131.02409
LATT -1
SFAC Li O  S  Fe 
Li     1  0.0039870000000  0.0039870000000  0.0079750000000 1.0  -0.03
O      2  0.2314040000000 -0.0098190000000  0.2215860000000 1.0   0.25
O      2 -0.0098190000000  0.2314040000000  0.2215860000000 1.0   0.25
O      2 -0.5965900000000 -0.5965900000000 -0.1931810000000 1.0   0.09
S      3 -0.3420440000000 -0.0405230000000 -0.3825670000000 1.0   0.20
S      3 -0.0405230000000 -0.3420440000000 -0.3825670000000 1.0   0.20
Fe     4  0.0660770000000  0.0660770000000 -0.3628790000000 1.0   1.03
Fe     4 -0.4289560000000 -0.4289560000000 -0.3628790000000 1.0   1.03
Fe     4  0.1772720000000  0.1772720000000  0.3545430000000 1.0   1.81
END
