TITL LFSO-Li5FeSO3-200910-064224-c4f137 0.0380 127.452802 -3.48192090E+003 4.99999 5.03533 10 (Cm) n - 1
REM
REM Run started: Thu, 10 Sep 2020 07:16:07 +0100 in /lustre/scratch/uccabz1/launch_tmp/launcher_2020-09-10-05-42-23-264223
REM CASTEP 20.1 from code version af48c487+ pr-geom-scf-spinfix Tue Jun 2 15:39:59 2020 +0100
REM Functional Perdew Burke Ernzerhof Relativity Koelling-Harmon Dispersion off
REM Cut-off 340.0000 eV Grid scale 1.7500 Gmax 16.5316 1/A FBSC none
REM MP grid 4 4 3 Offset 0.000 0.000 0.000 No. kpts 16 Spacing 0.07
REM Total runtime: 2112.4 s
REM Overall efficiency: 89.1667 %
REM
REM
REM
REM compiler GCC version 4.9.2
REM options -cpp -iprefix /lustre/shared/ucl/apps/gcc/4.9.2/bin/../lib/gcc/x86_64-unknown-linux-gnu/4.9.2/ -mtune=corei7 -march=x86-64 -g -Og
REM COMMAND_LINE
REM seed -1083170763 -1976118763 -1077605524 -1054124408 153319804 475970625 -1760844450 1513995577 -1355275421 1325734703 1506721337 352562359
REM
REM S 3|1.8|5|6|7|30:31:32(qc=5)
REM O 2|1.5|12|13|15|20:21(qc=5)
REM Li 1|1.3|8|9|10|10U:20(qc=5)
REM Fe 3|2.2|2.0|1.0|8|9|10|40:41:32(qc=5)
REM 
CELL 1.54180    5.31696    5.31696    5.70678  103.33659  103.33659  117.94430
LATT -1
SFAC Li O  S  Fe 
Li     1 -0.5216420000000  0.1765180000000 -0.3087190000000 1.0  -0.02
Li     1  0.1765180000000  0.4783580000000 -0.3087190000000 1.0  -0.02
Li     1  0.3212120000000 -0.2785080000000  0.3448670000000 1.0   0.04
Li     1  0.7214920000000  0.3212120000000  0.3448670000000 1.0   0.04
Li     1 -0.1902970000000 -0.1902970000000  0.1910900000000 1.0  -0.02
O      2 -0.9335640000000 -0.2621730000000 -0.4841320000000 1.0   0.25
O      2 -0.2621730000000  0.0664360000000 -0.4841320000000 1.0   0.25
O      2 -0.4080260000000 -0.4080260000000 -0.2000890000000 1.0   0.37
S      3  0.2410950000000  0.2410950000000  0.1265930000000 1.0   0.24
Fe     4 -0.1185700000000 -0.1185700000000 -0.2825390000000 1.0   3.87
END
