TITL LFSO-LiFeSO-200909-040640-e1c2b4 0.0239 215.264163 -5.41750145E+003 9.72634 9.89969 12 (R32) n - 1
REM
REM Run started: Wed, 09 Sep 2020 05:11:48 +0100 in /lustre/scratch/uccabz1/launch_tmp/launcher_2020-09-09-03-06-39-049320
REM CASTEP 20.1 from code version af48c487+ pr-geom-scf-spinfix Tue Jun 2 15:39:59 2020 +0100
REM Functional Perdew Burke Ernzerhof Relativity Koelling-Harmon Dispersion off
REM Cut-off 340.0000 eV Grid scale 1.7500 Gmax 16.5316 1/A FBSC none
REM MP grid 3 3 3 Offset 0.000 0.000 0.000 No. kpts 6 Spacing 0.07
REM Total runtime: 4833.24 s
REM Overall efficiency: 96.3333 %
REM
REM
REM
REM compiler GCC version 4.9.2
REM options -cpp -iprefix /lustre/shared/ucl/apps/gcc/4.9.2/bin/../lib/gcc/x86_64-unknown-linux-gnu/4.9.2/ -mtune=corei7 -march=x86-64 -g -Og
REM COMMAND_LINE
REM seed -133137317 -469877052 379049462 -1015059593 -1876241949 -748119335 466644984 -764563400 1487209402 -1686674715 455000071 1875166088
REM
REM S 3|1.8|5|6|7|30:31:32(qc=5)
REM O 2|1.5|12|13|15|20:21(qc=5)
REM Li 1|1.3|8|9|10|10U:20(qc=5)
REM Fe 3|2.2|2.0|1.0|8|9|10|40:41:32(qc=5)
REM 
CELL 1.54180    6.01673    6.01673    6.01673   84.78829   84.78829   84.78829
LATT -1
SFAC Li O  S  Fe 
Li     1  0.5481890000000  0.2336440000000 -0.1089530000000 1.0   0.02
Li     1  0.2336440000000 -0.1089530000000  0.5481890000000 1.0   0.02
Li     1 -0.1089530000000  0.5481890000000  0.2336440000000 1.0   0.02
O      2  0.1433060000000 -0.3580120000000  0.3890050000000 1.0   0.26
O      2 -0.3580120000000  0.3890050000000  0.1433060000000 1.0   0.26
O      2  0.3890050000000  0.1433060000000 -0.3580120000000 1.0   0.26
S      3 -0.4165180000000 -0.1105300000000  0.2059440000000 1.0   0.22
S      3 -0.1105300000000  0.2059440000000 -0.4165180000000 1.0   0.22
S      3  0.2059440000000 -0.4165180000000 -0.1105300000000 1.0   0.22
Fe     4  0.1942770000000  0.3943040000000 -0.4130340000000 1.0   2.75
Fe     4  0.3943040000000 -0.4130340000000  0.1942770000000 1.0   2.75
Fe     4 -0.4130340000000  0.1942770000000  0.3943040000000 1.0   2.75
END
