TITL LFSO-Li2Fe3S3O-200912-165656-f8b85d 0.6101 426.954200 -8.67965579E+003 8.68415 15.5813 18 (Pm) n - 1
REM
REM Run started: Sun, 13 Sep 2020 11:12:43 +0100 in /lustre/scratch/uccabz1/launch_tmp/launcher_2020-09-12-15-56-54-699159
REM CASTEP 20.1 from code version af48c487+ pr-geom-scf-spinfix Tue Jun 2 15:39:59 2020 +0100
REM Functional Perdew Burke Ernzerhof Relativity Koelling-Harmon Dispersion off
REM Cut-off 340.0000 eV Grid scale 1.7500 Gmax 16.5316 1/A FBSC none
REM MP grid 3 2 3 Offset 0.000 0.000 0.000 No. kpts 5 Spacing 0.07
REM Total runtime: 96432.6 s
REM Overall efficiency: 77.7692 %
REM
REM
REM
REM compiler GCC version 4.9.2
REM options -cpp -iprefix /lustre/shared/ucl/apps/gcc/4.9.2/bin/../lib/gcc/x86_64-unknown-linux-gnu/4.9.2/ -mtune=corei7 -march=x86-64 -g -Og
REM COMMAND_LINE
REM seed -388848525 -1306753733 -1267612365 -1479623168 975647941 1591941359 1735154568 -477716790 909843112 2004154230 -673067667 -2107992583
REM
REM S 3|1.8|5|6|7|30:31:32(qc=5)
REM O 2|1.5|12|13|15|20:21(qc=5)
REM Li 1|1.3|8|9|10|10U:20(qc=5)
REM Fe 3|2.2|2.0|1.0|8|9|10|40:41:32(qc=5)
REM 
CELL 1.54180    6.73074    9.29631    6.85969   90.00000   95.88717   90.00000
LATT -1
SFAC Li O  S  Fe 
Li     1  0.0959070000000 -0.2294980000000  0.3995390000000 1.0   0.02
Li     1  0.0959070000000  0.2294980000000  0.3995390000000 1.0   0.02
Li     1  0.1881280000000  0.1871320000000 -0.0714030000000 1.0  -0.00
Li     1  0.1881280000000 -0.1871320000000 -0.0714030000000 1.0  -0.00
O      2  0.3903700000000 -0.1675500000000 -0.2398510000000 1.0   0.25
O      2  0.3903700000000  0.1675500000000 -0.2398510000000 1.0   0.25
S      3 -0.6033320000000  0.1894940000000  0.2407940000000 1.0   0.07
S      3 -0.6033320000000 -0.1894940000000  0.2407940000000 1.0   0.07
S      3 -0.1101250000000  0.2391330000000  0.0736930000000 1.0   0.04
S      3 -0.1101250000000 -0.2391330000000  0.0736930000000 1.0   0.04
S      3 -0.1883940000000  0.1796120000000 -0.4259750000000 1.0   0.15
S      3 -0.1883940000000 -0.1796120000000 -0.4259750000000 1.0   0.15
Fe     4 -0.3415360000000 -0.1473840000000 -0.1439330000000 1.0   2.84
Fe     4 -0.3415360000000  0.1473840000000 -0.1439330000000 1.0   2.84
Fe     4 -0.2957760000000 -0.1141710000000  0.2544250000000 1.0  -1.57
Fe     4 -0.2957760000000  0.1141710000000  0.2544250000000 1.0  -1.57
Fe     4  0.4937150000000  0.1288750000000  0.5359500000000 1.0   2.54
Fe     4  0.4937150000000 -0.1288750000000  0.5359500000000 1.0   2.54
END
