TITL LFSO-Li2Fe4S3O2-200912-071620-d28e27 -0.0500 437.972148 -5.63610595E+003 5.22166 6.06236 11 (Immm) n - 1
REM
REM Run started: Sat, 12 Sep 2020 17:59:39 +0100 in /lustre/scratch/uccabz1/launch_tmp/launcher_2020-09-12-06-16-18-076114
REM CASTEP 20.1 from code version af48c487+ pr-geom-scf-spinfix Tue Jun 2 15:39:59 2020 +0100
REM Functional Perdew Burke Ernzerhof Relativity Koelling-Harmon Dispersion off
REM Cut-off 340.0000 eV Grid scale 1.7500 Gmax 16.5316 1/A FBSC none
REM MP grid 4 2 3 Offset 0.000 0.000 0.000 No. kpts 12 Spacing 0.07
REM Total runtime: 48983.3 s
REM Overall efficiency: 97.8333 %
REM
REM
REM
REM compiler GCC version 4.9.2
REM options -cpp -iprefix /lustre/shared/ucl/apps/gcc/4.9.2/bin/../lib/gcc/x86_64-unknown-linux-gnu/4.9.2/ -mtune=corei7 -march=x86-64 -g -Og
REM COMMAND_LINE
REM seed 1375446836 -372450351 1209306065 -1284569397 -1050798315 1409593927 1080122229 1938275000 -44422997 759511646 -44322584 294809811
REM
REM S 3|1.8|5|6|7|30:31:32(qc=5)
REM O 2|1.5|12|13|15|20:21(qc=5)
REM Li 1|1.3|8|9|10|10U:20(qc=5)
REM Fe 3|2.2|2.0|1.0|8|9|10|40:41:32(qc=5)
REM 
CELL 1.54180    4.27647   17.89343   10.83398  145.66984  101.38282   90.00000
LATT -1
SFAC Li O  S  Fe 
Li     1  0.1223020000000  0.1223020000000  0.2446040000000 1.0  -0.02
Li     1 -0.1223020000000 -0.1223020000000 -0.2446040000000 1.0  -0.02
O      2 -0.2306680000000  0.2693320000000 -0.4613350000000 1.0   0.12
O      2  0.2306680000000 -0.2693320000000  0.4613350000000 1.0   0.12
S      3  0.0000000000000  0.4137090000000 -0.0000000000000 1.0  -0.04
S      3  0.0000000000000 -0.4137090000000 -0.0000000000000 1.0  -0.04
S      3 -0.5000000000000 -0.0000000000000 -0.0000000000000 1.0   0.56
Fe     4 -0.1570970000000 -0.3928770000000  0.2142460000000 1.0   1.13
Fe     4  0.3713430000000 -0.3928770000000  0.2142460000000 1.0   1.13
Fe     4  0.1570970000000  0.3928770000000 -0.2142460000000 1.0   1.13
Fe     4 -0.3713430000000  0.3928770000000 -0.2142460000000 1.0   1.13
END
