TITL LFSO-Li3Fe3S4O2-200929-141338-eeda7e -0.4071 292.406708 -5.27828879E+003 4.95406 5.38047 12 (P3) n - 1
REM
REM Run started: Tue, 29 Sep 2020 18:34:28 +0100 in /lustre/scratch/uccabz1/launch_tmp/launcher_2020-09-29-13-13-36-081374
REM CASTEP 20.1 from code version af48c487+ pr-geom-scf-spinfix Tue Jun 2 15:39:59 2020 +0100
REM Functional Perdew Burke Ernzerhof Relativity Koelling-Harmon Dispersion off
REM Cut-off 340.0000 eV Grid scale 1.7500 Gmax 16.5316 1/A FBSC none
REM MP grid 2 3 3 Offset 0.000 0.000 0.000 No. kpts 5 Spacing 0.07
REM Total runtime: 17802.4 s
REM Overall efficiency: 79.1538 %
REM
REM
REM
REM compiler GCC version 4.9.2
REM options -cpp -iprefix /lustre/shared/ucl/apps/gcc/4.9.2/bin/../lib/gcc/x86_64-unknown-linux-gnu/4.9.2/ -mtune=corei7 -march=x86-64 -g -Og
REM COMMAND_LINE
REM seed -1834905530 1863679213 -2112759324 -1885629035 1976226701 -1385199068 2035625478 -1002219591 2135725827 788272800 -1009978375 783164969
REM
REM S 3|1.8|5|6|7|30:31:32(qc=5)
REM O 2|1.5|12|13|15|20:21(qc=5)
REM Li 1|1.3|8|9|10|10U:20(qc=5)
REM Fe 3|2.2|2.0|1.0|8|9|10|40:41:32(qc=5)
REM 
CELL 1.54180    9.00361    6.12379    6.12379  120.00000   90.00000   90.00000
LATT -1
SFAC Li O  S  Fe 
Li     1  0.2653930000000 -0.4430970000000 -0.4221810000000 1.0  -0.02
Li     1  0.2653930000000  0.0209170000000  0.4430970000000 1.0  -0.02
Li     1  0.2653930000000  0.4221810000000 -0.0209170000000 1.0  -0.02
O      2  0.3086520000000  0.3333330000000 -0.3333330000000 1.0   0.45
O      2  0.6138320000000 -0.0000000000000  0.0000000000000 1.0   0.01
S      3 -0.2506720000000 -0.4063980000000  0.0005190000000 1.0  -0.00
S      3 -0.2506720000000  0.4069160000000  0.4063980000000 1.0  -0.00
S      3 -0.2506720000000 -0.0005190000000 -0.4069160000000 1.0  -0.00
S      3  0.1182030000000 -0.3333330000000  0.3333330000000 1.0   0.35
Fe     4 -0.2588930000000  0.2453850000000 -0.0004780000000 1.0   1.40
Fe     4 -0.2588930000000 -0.2458630000000 -0.2453850000000 1.0   1.40
Fe     4 -0.2588930000000  0.0004780000000  0.2458630000000 1.0   1.40
END
