TITL LFSO-Li3Fe3S2O4-200928-192930-7a66ec 0.0547 624.923333 -1.10940571E+004 16.6395 18.8678 24 (P3) n - 1
REM
REM Run started: Tue, 29 Sep 2020 16:52:58 +0100 in /lustre/scratch/uccabz1/launch_tmp/launcher_2020-09-28-18-29-28-839213
REM CASTEP 20.1 from code version af48c487+ pr-geom-scf-spinfix Tue Jun 2 15:39:59 2020 +0100
REM Functional Perdew Burke Ernzerhof Relativity Koelling-Harmon Dispersion off
REM Cut-off 340.0000 eV Grid scale 1.7500 Gmax 16.5316 1/A FBSC none
REM MP grid 3 2 2 Offset 0.000 0.000 0.000 No. kpts 6 Spacing 0.07
REM Total runtime: 77696.2 s
REM Overall efficiency: 98.6364 %
REM
REM
REM
REM compiler GCC version 4.9.2
REM options -cpp -iprefix /lustre/shared/ucl/apps/gcc/4.9.2/bin/../lib/gcc/x86_64-unknown-linux-gnu/4.9.2/ -mtune=corei7 -march=x86-64 -g -Og
REM COMMAND_LINE
REM seed 678281354 879628027 -1760755811 -2134320657 536476008 -2014870840 -477936906 -2105100582 407595005 -1763098381 -677809666 498259509
REM
REM S 3|1.8|5|6|7|30:31:32(qc=5)
REM O 2|1.5|12|13|15|20:21(qc=5)
REM Li 1|1.3|8|9|10|10U:20(qc=5)
REM Fe 3|2.2|2.0|1.0|8|9|10|40:41:32(qc=5)
REM 
CELL 1.54180    6.08179   10.89262   10.89262  120.00000   90.00000   90.00000
LATT -1
SFAC Li O  S  Fe 
Li     1 -0.2936790000000 -0.4334730000000  0.7179400000000 1.0  -0.02
Li     1 -0.2936790000000  0.1514120000000  0.4334730000000 1.0  -0.02
Li     1 -0.2936790000000 -0.7179400000000 -0.1514120000000 1.0  -0.02
Li     1  0.0210620000000  0.2834620000000  0.2829840000000 1.0  -0.01
Li     1  0.0210620000000 -0.0004790000000 -0.2834620000000 1.0  -0.01
Li     1  0.0210620000000 -0.2829840000000  0.0004790000000 1.0  -0.01
O      2 -0.1256750000000 -0.2651400000000 -0.1481170000000 1.0   0.13
O      2 -0.1256750000000  0.1170230000000  0.2651400000000 1.0   0.13
O      2 -0.1256750000000  0.1481170000000 -0.1170230000000 1.0   0.13
O      2  0.0823310000000 -0.1570320000000  0.1850980000000 1.0   0.33
O      2  0.0823310000000  0.3421300000000  0.1570320000000 1.0   0.33
O      2  0.0823310000000 -0.1850980000000 -0.3421300000000 1.0   0.33
O      2  0.4262570000000 -0.0000000000000  0.0000000000000 1.0   0.09
O      2  0.1107000000000  0.3333330000000 -0.3333330000000 1.0  -0.46
S      3  0.3850310000000 -0.3315190000000 -0.1504010000000 1.0   0.11
S      3  0.3850310000000  0.1811180000000  0.3315190000000 1.0   0.11
S      3  0.3850310000000  0.1504010000000 -0.1811180000000 1.0   0.11
S      3 -0.1513500000000  0.3333330000000 -0.3333330000000 1.0  -0.26
Fe     4  0.1244080000000 -0.2444030000000 -0.2294910000000 1.0   2.62
Fe     4  0.1244080000000  0.0149120000000  0.2444030000000 1.0   2.62
Fe     4  0.1244080000000  0.2294910000000 -0.0149120000000 1.0   2.62
Fe     4 -0.3732340000000  0.0819560000000 -0.0660700000000 1.0   2.61
Fe     4 -0.3732340000000 -0.1480250000000 -0.0819560000000 1.0   2.61
Fe     4 -0.3732340000000  0.0660700000000  0.1480250000000 1.0   2.61
END
