TITL LFSO-Li2Fe2S3O-200913-053228-f18aec -0.0213 121.278292 -3.47461251E+003 4.45887 4.73955 8 (P2) n - 1
REM
REM Run started: Sun, 13 Sep 2020 06:21:12 +0100 in /lustre/scratch/uccabz1/launch_tmp/launcher_2020-09-13-04-32-26-846854
REM CASTEP 20.1 from code version af48c487+ pr-geom-scf-spinfix Tue Jun 2 15:39:59 2020 +0100
REM Functional Perdew Burke Ernzerhof Relativity Koelling-Harmon Dispersion off
REM Cut-off 340.0000 eV Grid scale 1.7500 Gmax 16.5316 1/A FBSC none
REM MP grid 4 4 2 Offset 0.000 0.000 0.000 No. kpts 8 Spacing 0.07
REM Total runtime: 3028.93 s
REM Overall efficiency: 92.7143 %
REM
REM
REM
REM compiler GCC version 4.9.2
REM options -cpp -iprefix /lustre/shared/ucl/apps/gcc/4.9.2/bin/../lib/gcc/x86_64-unknown-linux-gnu/4.9.2/ -mtune=corei7 -march=x86-64 -g -Og
REM COMMAND_LINE
REM seed 1959439630 1934021236 668326728 1003099284 272607643 -234484905 548534548 -329827193 1045768081 -930593070 2080199423 1916029464
REM
REM S 3|1.8|5|6|7|30:31:32(qc=5)
REM O 2|1.5|12|13|15|20:21(qc=5)
REM Li 1|1.3|8|9|10|10U:20(qc=5)
REM Fe 3|2.2|2.0|1.0|8|9|10|40:41:32(qc=5)
REM 
CELL 1.54180    3.62806    3.66434    9.12494   91.32591   90.00000   90.00000
LATT -1
SFAC Li O  S  Fe 
Li     1 -0.0727750000000 -0.7265400000000 -0.3841270000000 1.0  -0.02
Li     1 -0.0727750000000  0.7265400000000  0.3841270000000 1.0  -0.02
O      2 -0.3030750000000  0.0000000000000  0.0000000000000 1.0  -0.02
S      3  0.4097290000000  0.2400020000000  0.3159370000000 1.0   0.05
S      3  0.4097290000000 -0.2400020000000 -0.3159370000000 1.0   0.05
S      3 -0.1492970000000  0.5000000000000  0.0000000000000 1.0  -0.05
Fe     4  0.4317480000000 -0.7247380000000 -0.1574330000000 1.0   2.23
Fe     4  0.4317480000000  0.7247380000000  0.1574330000000 1.0   2.23
END
