TITL LFSO-Li3Fe3S4O2-200929-111316-62c609 0.3366 245.429465 -5.28138798E+003 8.38153 8.68797 12 (P-1) n - 1
REM
REM Run started: Wed, 30 Sep 2020 09:55:03 +0100 in /lustre/scratch/uccabz1/launch_tmp/launcher_2020-09-30-08-31-26-503046
REM CASTEP 20.1 from code version af48c487+ pr-geom-scf-spinfix Tue Jun 2 15:39:59 2020 +0100
REM Functional Perdew Burke Ernzerhof Relativity Koelling-Harmon Dispersion off
REM Cut-off 340.0000 eV Grid scale 1.7500 Gmax 16.5316 1/A FBSC none
REM MP grid 4 4 2 Offset 0.000 0.000 0.000 No. kpts 16 Spacing 0.07
REM Total runtime: 71165.6 s
REM Overall efficiency: 97.5 %
REM
REM
REM
REM compiler GCC version 4.9.2
REM options -cpp -iprefix /lustre/shared/ucl/apps/gcc/4.9.2/bin/../lib/gcc/x86_64-unknown-linux-gnu/4.9.2/ -mtune=corei7 -march=x86-64 -g -Og
REM COMMAND_LINE
REM seed -953743058 1695876203 592055318 895094508 704008385 -720369603 -1227026209 -1851310699 405425092 1251102852 -615783129 1188450809
REM
REM S 3|1.8|5|6|7|30:31:32(qc=5)
REM O 2|1.5|12|13|15|20:21(qc=5)
REM Li 1|1.3|8|9|10|10U:20(qc=5)
REM Fe 3|2.2|2.0|1.0|8|9|10|40:41:32(qc=5)
REM 
CELL 1.54180    6.19482    3.83991   17.55807   77.69677  141.67315   91.11508
LATT -1
SFAC Li O  S  Fe 
Li     1 -0.4007470000000  0.2920080000000 -0.0364820000000 1.0   0.04
Li     1  0.4007470000000 -0.2920080000000  0.0364820000000 1.0   0.04
Li     1  0.0000000000000  0.0000000000000 -0.5000000000000 1.0  -0.03
O      2  0.3428620000000 -0.2715080000000 -0.4560450000000 1.0   0.23
O      2 -0.3428620000000  0.2715080000000  0.4560450000000 1.0   0.23
S      3 -0.0315240000000  0.0147890000000 -0.2907810000000 1.0   0.02
S      3  0.0315240000000 -0.0147890000000  0.2907810000000 1.0   0.02
S      3 -0.0729380000000 -0.3250190000000  0.0958400000000 1.0   0.15
S      3  0.0729380000000  0.3250190000000 -0.0958400000000 1.0   0.15
Fe     4  0.2092550000000  0.4927670000000  0.2857000000000 1.0   2.46
Fe     4 -0.2092550000000 -0.4927670000000 -0.2857000000000 1.0   2.46
Fe     4 -0.5000000000000  0.0000000000000 -0.5000000000000 1.0   2.62
END
