TITL LFSO-Li2Fe3SO3-200912-143119-c3e7d7 -0.0707 118.736638 -4.60751809E+003 9.68379 9.84221 9 (R3) n - 1
REM
REM Run started: Sat, 12 Sep 2020 15:02:57 +0100 in /lustre/scratch/uccabz1/launch_tmp/launcher_2020-09-12-13-31-17-312214
REM CASTEP 20.1 from code version af48c487+ pr-geom-scf-spinfix Tue Jun 2 15:39:59 2020 +0100
REM Functional Perdew Burke Ernzerhof Relativity Koelling-Harmon Dispersion off
REM Cut-off 340.0000 eV Grid scale 1.7500 Gmax 16.5316 1/A FBSC none
REM MP grid 3 3 3 Offset 0.000 0.000 0.000 No. kpts 6 Spacing 0.07
REM Total runtime: 1938.19 s
REM Overall efficiency: 89.2857 %
REM
REM
REM
REM compiler GCC version 4.9.2
REM options -cpp -iprefix /lustre/shared/ucl/apps/gcc/4.9.2/bin/../lib/gcc/x86_64-unknown-linux-gnu/4.9.2/ -mtune=corei7 -march=x86-64 -g -Og
REM COMMAND_LINE
REM seed -2034551024 -1263946969 -1063483110 1571306760 -1010911640 1240052466 789077435 -219761613 1124595313 -2111049160 1780371297 -916302457
REM
REM S 3|1.8|5|6|7|30:31:32(qc=5)
REM O 2|1.5|12|13|15|20:21(qc=5)
REM Li 1|1.3|8|9|10|10U:20(qc=5)
REM Fe 3|2.2|2.0|1.0|8|9|10|40:41:32(qc=5)
REM 
CELL 1.54180    4.92132    4.92132    4.92132   87.06049   87.06049   87.06049
LATT -1
SFAC Li O  S  Fe 
Li     1 -0.0775100000000 -0.0775100000000 -0.0775100000000 1.0  -0.04
Li     1 -0.3826450000000 -0.3826450000000 -0.3826450000000 1.0  -0.04
O      2 -0.2575440000000 -0.1324030000000  0.2844860000000 1.0   0.22
O      2 -0.1324030000000  0.2844860000000 -0.2575440000000 1.0   0.22
O      2  0.2844860000000 -0.2575440000000 -0.1324030000000 1.0   0.22
S      3  0.3528750000000  0.3528750000000  0.3528750000000 1.0   0.14
Fe     4  0.3877790000000 -0.0414410000000  0.1462290000000 1.0   2.99
Fe     4 -0.0414410000000  0.1462290000000  0.3877790000000 1.0   2.99
Fe     4  0.1462290000000  0.3877790000000 -0.0414410000000 1.0   2.99
END
