TITL LFSO-LiFe3SO4-200909-014331-5d6e30 -0.0664 139.109102 -4.84466725E+003 6.08143 6.26776 9 (P2) n - 1
REM
REM Run started: Wed, 09 Sep 2020 03:41:23 +0100 in /lustre/scratch/uccabz1/launch_tmp/launcher_2020-09-09-00-43-29-250549
REM CASTEP 20.1 from code version af48c487+ pr-geom-scf-spinfix Tue Jun 2 15:39:59 2020 +0100
REM Functional Perdew Burke Ernzerhof Relativity Koelling-Harmon Dispersion off
REM Cut-off 340.0000 eV Grid scale 1.7500 Gmax 16.5316 1/A FBSC none
REM MP grid 5 3 3 Offset 0.000 0.000 0.000 No. kpts 16 Spacing 0.07
REM Total runtime: 7210.03 s
REM Overall efficiency: 95.4444 %
REM
REM
REM
REM compiler GCC version 4.9.2
REM options -cpp -iprefix /lustre/shared/ucl/apps/gcc/4.9.2/bin/../lib/gcc/x86_64-unknown-linux-gnu/4.9.2/ -mtune=corei7 -march=x86-64 -g -Og
REM COMMAND_LINE
REM seed 518452862 199329482 630535970 1898578551 -1969840220 818327936 -1494219177 664159917 1102308840 824401024 1898212756 -163450049
REM
REM S 3|1.8|5|6|7|30:31:32(qc=5)
REM O 2|1.5|12|13|15|20:21(qc=5)
REM Li 1|1.3|8|9|10|10U:20(qc=5)
REM Fe 3|2.2|2.0|1.0|8|9|10|40:41:32(qc=5)
REM 
CELL 1.54180    3.62018    6.75228    5.90966   90.00000   90.00000   74.35866
LATT -1
SFAC Li O  S  Fe 
Li     1 -0.5000000000000 -0.5000000000000 -0.4211190000000 1.0  -0.02
O      2  0.3093250000000 -0.1220630000000  0.2003840000000 1.0   0.07
O      2 -0.3093250000000  0.1220630000000  0.2003840000000 1.0   0.07
O      2  0.1400180000000  0.2525130000000 -0.1539080000000 1.0   0.24
O      2 -0.1400180000000 -0.2525130000000 -0.1539080000000 1.0   0.24
S      3  0.0000000000000  0.5000000000000  0.3127810000000 1.0   0.07
Fe     4 -0.1698440000000 -0.1659780000000  0.1435810000000 1.0   1.70
Fe     4  0.1698440000000  0.1659780000000  0.1435810000000 1.0   1.70
Fe     4  0.0000000000000 -0.5000000000000 -0.0495210000000 1.0   2.00
END
