TITL LFSO-Li3FeS2O-200911-173011-c454d2 -0.0356 500.118384 -7.52558228E+003 9.00642 9.88081 21 (R3) n - 1
REM
REM Run started: Fri, 11 Sep 2020 22:18:07 +0100 in /lustre/scratch/uccabz1/launch_tmp/launcher_2020-09-11-16-30-09-379802
REM CASTEP 20.1 from code version af48c487+ pr-geom-scf-spinfix Tue Jun 2 15:39:59 2020 +0100
REM Functional Perdew Burke Ernzerhof Relativity Koelling-Harmon Dispersion off
REM Cut-off 340.0000 eV Grid scale 1.7500 Gmax 16.5316 1/A FBSC none
REM MP grid 2 2 2 Offset 0.000 0.000 0.000 No. kpts 2 Spacing 0.07
REM Total runtime: 17359.4 s
REM Overall efficiency: 81.5 %
REM
REM
REM
REM compiler GCC version 4.9.2
REM options -cpp -iprefix /lustre/shared/ucl/apps/gcc/4.9.2/bin/../lib/gcc/x86_64-unknown-linux-gnu/4.9.2/ -mtune=corei7 -march=x86-64 -g -Og
REM COMMAND_LINE
REM seed -1550125691 1176871465 -1939863913 770309964 -111296020 901705575 732641126 591623598 -469506050 487017346 1352635509 -611789699
REM
REM S 3|1.8|5|6|7|30:31:32(qc=5)
REM O 2|1.5|12|13|15|20:21(qc=5)
REM Li 1|1.3|8|9|10|10U:20(qc=5)
REM Fe 3|2.2|2.0|1.0|8|9|10|40:41:32(qc=5)
REM 
CELL 1.54180    8.02702    8.02702    8.02702   98.08965   98.08965   98.08965
LATT -1
SFAC Li O  S  Fe 
Li     1 -0.0829930000000 -0.0450650000000 -0.5987270000000 1.0  -0.01
Li     1 -0.0450650000000 -0.5987270000000 -0.0829930000000 1.0  -0.01
Li     1 -0.5987270000000 -0.0829930000000 -0.0450650000000 1.0  -0.01
Li     1 -0.5718920000000  0.3247070000000 -0.0049300000000 1.0   0.00
Li     1  0.3247070000000 -0.0049300000000 -0.5718920000000 1.0   0.00
Li     1 -0.0049300000000 -0.5718920000000  0.3247070000000 1.0   0.00
Li     1 -0.3975560000000 -0.3834890000000  0.1836390000000 1.0   0.03
Li     1 -0.3834890000000  0.1836390000000 -0.3975560000000 1.0   0.03
Li     1  0.1836390000000 -0.3975560000000 -0.3834890000000 1.0   0.03
O      2  0.1263660000000  0.3784930000000  0.5125200000000 1.0   0.19
O      2  0.3784930000000  0.5125200000000  0.1263660000000 1.0   0.19
O      2  0.5125200000000  0.1263660000000  0.3784930000000 1.0   0.19
S      3 -0.2554120000000  0.3647970000000  0.1103640000000 1.0   0.11
S      3  0.3647970000000  0.1103640000000 -0.2554120000000 1.0   0.11
S      3  0.1103640000000 -0.2554120000000  0.3647970000000 1.0   0.11
S      3 -0.0933420000000  0.1362400000000 -0.3061290000000 1.0   0.12
S      3  0.1362400000000 -0.3061290000000 -0.0933420000000 1.0   0.12
S      3 -0.3061290000000 -0.0933420000000  0.1362400000000 1.0   0.12
Fe     4  0.2256190000000 -0.3621110000000  0.1494700000000 1.0   2.56
Fe     4 -0.3621110000000  0.1494700000000  0.2256190000000 1.0   2.56
Fe     4  0.1494700000000  0.2256190000000 -0.3621110000000 1.0   2.56
END
