TITL LFSO-Li4Fe3S2O3-201001-032738-fb7ecd 0.0511 182.592564 -5.31222460E+003 9.77031 10.1469 12 (P-1) n - 1
REM
REM Run started: Thu, 01 Oct 2020 20:30:46 +0100 in /lustre/scratch/uccabz1/launch_tmp/launcher_2020-10-01-02-27-36-445128
REM CASTEP 20.1 from code version af48c487+ pr-geom-scf-spinfix Tue Jun 2 15:39:59 2020 +0100
REM Functional Perdew Burke Ernzerhof Relativity Koelling-Harmon Dispersion off
REM Cut-off 340.0000 eV Grid scale 1.7500 Gmax 16.5316 1/A FBSC none
REM MP grid 5 5 3 Offset 0.000 0.000 0.000 No. kpts 38 Spacing 0.07
REM Total runtime: 52751.7 s
REM Overall efficiency: 97.5 %
REM
REM
REM
REM compiler GCC version 4.9.2
REM options -cpp -iprefix /lustre/shared/ucl/apps/gcc/4.9.2/bin/../lib/gcc/x86_64-unknown-linux-gnu/4.9.2/ -mtune=corei7 -march=x86-64 -g -Og
REM COMMAND_LINE
REM seed 684524465 -1903475544 246004273 261501106 -485028759 1908418147 727162453 -1567235885 -816156898 775722420 -2043041969 -1243750577
REM
REM S 3|1.8|5|6|7|30:31:32(qc=5)
REM O 2|1.5|12|13|15|20:21(qc=5)
REM Li 1|1.3|8|9|10|10U:20(qc=5)
REM Fe 3|2.2|2.0|1.0|8|9|10|40:41:32(qc=5)
REM 
CELL 1.54180   10.26349    8.35030    7.04760   69.11424  128.63751  152.47745
LATT -1
SFAC Li O  S  Fe 
Li     1 -0.1805640000000 -0.2960260000000 -0.4493410000000 1.0  -0.03
Li     1  0.1805640000000  0.2960260000000  0.4493410000000 1.0  -0.03
Li     1  0.4636220000000 -0.2127310000000 -0.1518750000000 1.0  -0.06
Li     1 -0.4636220000000  0.2127310000000  0.1518750000000 1.0  -0.06
O      2 -0.3984270000000 -0.2018430000000 -0.2531980000000 1.0   0.19
O      2  0.3984270000000  0.2018430000000  0.2531980000000 1.0   0.19
O      2  0.0000000000000 -0.5000000000000 -0.5000000000000 1.0   0.25
S      3 -0.4858540000000  0.3314470000000 -0.2257860000000 1.0   0.12
S      3  0.4858540000000 -0.3314470000000  0.2257860000000 1.0   0.12
Fe     4  0.2853010000000 -0.0829550000000  0.4311780000000 1.0   3.30
Fe     4 -0.2853010000000  0.0829550000000 -0.4311780000000 1.0   3.30
Fe     4  0.0000000000000  0.0000000000000  0.0000000000000 1.0   2.47
END
