TITL LFSO-LiFe3S2O3-200909-174026-d7275b 0.0040 143.815960 -4.71160714E+003 7.08822 7.70767 9 (R3) n - 1
REM
REM Run started: Wed, 09 Sep 2020 18:08:06 +0100 in /lustre/scratch/uccabz1/launch_tmp/launcher_2020-09-09-16-40-24-540277
REM CASTEP 20.1 from code version af48c487+ pr-geom-scf-spinfix Tue Jun 2 15:39:59 2020 +0100
REM Functional Perdew Burke Ernzerhof Relativity Koelling-Harmon Dispersion off
REM Cut-off 340.0000 eV Grid scale 1.7500 Gmax 16.5316 1/A FBSC none
REM MP grid 3 3 3 Offset 0.000 0.000 0.000 No. kpts 6 Spacing 0.07
REM Total runtime: 1738.08 s
REM Overall efficiency: 91.3333 %
REM
REM
REM
REM compiler GCC version 4.9.2
REM options -cpp -iprefix /lustre/shared/ucl/apps/gcc/4.9.2/bin/../lib/gcc/x86_64-unknown-linux-gnu/4.9.2/ -mtune=corei7 -march=x86-64 -g -Og
REM COMMAND_LINE
REM seed 1346294725 -726604079 -1499927312 1393132556 -1531523929 706635448 628508457 -673643154 1183553124 1761343187 1236759597 -727074612
REM
REM S 3|1.8|5|6|7|30:31:32(qc=5)
REM O 2|1.5|12|13|15|20:21(qc=5)
REM Li 1|1.3|8|9|10|10U:20(qc=5)
REM Fe 3|2.2|2.0|1.0|8|9|10|40:41:32(qc=5)
REM 
CELL 1.54180    5.27843    5.27843    5.27843   82.75333   82.75333   82.75333
LATT -1
SFAC Li O  S  Fe 
Li     1  0.3794140000000  0.3794140000000  0.3794140000000 1.0  -0.09
O      2  0.1276660000000  0.3752120000000 -0.3233770000000 1.0   0.20
O      2  0.3752120000000 -0.3233770000000  0.1276660000000 1.0   0.20
O      2 -0.3233770000000  0.1276660000000  0.3752120000000 1.0   0.20
S      3 -0.1226570000000 -0.1226570000000 -0.1226570000000 1.0  -0.17
S      3 -0.3805300000000 -0.3805300000000 -0.3805300000000 1.0  -0.10
Fe     4 -0.1491770000000  0.2383270000000 -0.3945260000000 1.0   2.28
Fe     4  0.2383270000000 -0.3945260000000 -0.1491770000000 1.0   2.28
Fe     4 -0.3945260000000 -0.1491770000000  0.2383270000000 1.0   2.28
END
