TITL LFSO-Li3Fe3S2O4-200929-180005-f3043e 0.2390 394.382605 -1.10952310E+004 17.5313 18.5199 24 (P2) n - 1
REM
REM Run started: Wed, 30 Sep 2020 18:49:42 +0100 in /lustre/scratch/uccabz1/launch_tmp/launcher_2020-09-30-16-40-28-498734
REM CASTEP 20.1 from code version af48c487+ pr-geom-scf-spinfix Tue Jun 2 15:39:59 2020 +0100
REM Functional Perdew Burke Ernzerhof Relativity Koelling-Harmon Dispersion off
REM Cut-off 340.0000 eV Grid scale 1.7500 Gmax 16.5316 1/A FBSC none
REM MP grid 3 3 2 Offset 0.000 0.000 0.000 No. kpts 5 Spacing 0.07
REM Total runtime: 90032.7 s
REM Overall efficiency: 79.7273 %
REM
REM
REM
REM compiler GCC version 4.9.2
REM options -cpp -iprefix /scratch/UCL/applications/gcc/4.9.2/bin/../lib/gcc/x86_64-unknown-linux-gnu/4.9.2/ -mtune=corei7 -march=x86-64 -g -O2
REM COMMAND_LINE
REM seed 547310161 69692498 -94756699 380624621 -1886856364 1527182350 -1718084912 -263415224 -1160690825 -1369722998 1967872351 1615753729
REM
REM S 3|1.8|5|6|7|30:31:32(qc=5)
REM O 2|1.5|12|13|15|20:21(qc=5)
REM Li 1|1.3|8|9|10|10U:20(qc=5)
REM Fe 3|2.2|2.0|1.0|8|9|10|40:41:32(qc=5)
REM 
CELL 1.54180    6.15989    5.75657   11.23473   90.00000   90.00000   98.12556
LATT -1
SFAC Li O  S  Fe 
Li     1  0.2376400000000 -0.0441370000000 -0.3559680000000 1.0  -0.07
Li     1 -0.2376400000000  0.0441370000000 -0.3559680000000 1.0  -0.07
Li     1 -0.3325830000000 -0.1131830000000  0.1320340000000 1.0   0.03
Li     1  0.3325830000000  0.1131830000000  0.1320340000000 1.0   0.03
Li     1  0.6169260000000 -0.1651640000000 -0.1100800000000 1.0  -0.01
Li     1 -0.6169260000000  0.1651640000000 -0.1100800000000 1.0  -0.01
O      2  0.3101240000000 -0.1991320000000 -0.0961480000000 1.0   0.19
O      2 -0.3101240000000  0.1991320000000 -0.0961480000000 1.0   0.19
O      2 -0.2142530000000 -0.1979210000000 -0.2432240000000 1.0   0.15
O      2  0.2142530000000  0.1979210000000 -0.2432240000000 1.0   0.15
O      2 -0.1805250000000 -0.2795560000000 -0.0003850000000 1.0   0.28
O      2  0.1805250000000  0.2795560000000 -0.0003850000000 1.0   0.28
O      2 -0.3554850000000  0.2217050000000  0.1368090000000 1.0   0.28
O      2  0.3554850000000 -0.2217050000000  0.1368090000000 1.0   0.28
S      3  0.3044450000000  0.3239280000000 -0.5028460000000 1.0   0.02
S      3 -0.3044450000000 -0.3239280000000 -0.5028460000000 1.0   0.02
S      3  0.1654660000000  0.0132920000000  0.3962200000000 1.0  -0.02
S      3 -0.1654660000000 -0.0132920000000  0.3962200000000 1.0  -0.02
Fe     4 -0.0172690000000  0.2822280000000 -0.1456170000000 1.0   3.15
Fe     4  0.0172690000000 -0.2822280000000 -0.1456170000000 1.0   3.15
Fe     4 -0.2711300000000  0.4115210000000  0.0256560000000 1.0   2.65
Fe     4  0.2711300000000 -0.4115210000000  0.0256560000000 1.0   2.65
Fe     4 -0.1553260000000 -0.4268690000000 -0.3437630000000 1.0   2.11
Fe     4  0.1553260000000  0.4268690000000 -0.3437630000000 1.0   2.11
END
