TITL LFSO-Li3Fe3SO5-200926-081520-a04c0c 0.0029 463.668185 -1.13632061E+004 -20.2068 20.5911 24 (Ama2) n - 1
REM
REM Run started: Sun, 27 Sep 2020 11:52:06 +0100 in /lustre/scratch/uccabz1/launch_tmp/launcher_2020-09-26-07-15-17-479201
REM CASTEP 20.1 from code version af48c487+ pr-geom-scf-spinfix Tue Jun 2 15:39:59 2020 +0100
REM Functional Perdew Burke Ernzerhof Relativity Koelling-Harmon Dispersion off
REM Cut-off 340.0000 eV Grid scale 1.7500 Gmax 16.5316 1/A FBSC none
REM MP grid 3 2 3 Offset 0.000 0.000 0.000 No. kpts 6 Spacing 0.07
REM Total runtime: 102506 s
REM Overall efficiency: 98.8182 %
REM
REM
REM
REM compiler GCC version 4.9.2
REM options -cpp -iprefix /lustre/shared/ucl/apps/gcc/4.9.2/bin/../lib/gcc/x86_64-unknown-linux-gnu/4.9.2/ -mtune=corei7 -march=x86-64 -g -Og
REM COMMAND_LINE
REM seed -1945314369 1305817015 -1830859107 366317345 -745704221 2012409098 1551545518 -1731404383 -1883879453 -143554118 -287609001 2069003723
REM
REM S 3|1.8|5|6|7|30:31:32(qc=5)
REM O 2|1.5|12|13|15|20:21(qc=5)
REM Li 1|1.3|8|9|10|10U:20(qc=5)
REM Fe 3|2.2|2.0|1.0|8|9|10|40:41:32(qc=5)
REM 
CELL 1.54180    6.41647   13.08987    8.56223  139.85334   90.00000   90.00000
LATT -1
SFAC Li O  S  Fe 
Li     1 -0.4532000000000  0.5675040000000  0.4949350000000 1.0  -0.02
Li     1  0.4532000000000  0.0725680000000 -0.4949350000000 1.0  -0.02
Li     1  0.0468000000000  0.0725680000000 -0.4949350000000 1.0  -0.02
Li     1 -0.0468000000000  0.5675040000000  0.4949350000000 1.0  -0.02
Li     1  0.2500000000000  0.3854630000000 -0.0306490000000 1.0  -0.01
Li     1 -0.2500000000000  0.4161120000000  0.0306490000000 1.0  -0.01
O      2 -0.0460450000000  0.0812600000000  0.3014230000000 1.0  -0.29
O      2  0.0460450000000 -0.2201630000000 -0.3014230000000 1.0  -0.29
O      2 -0.5460450000000 -0.2201630000000 -0.3014230000000 1.0  -0.29
O      2  0.5460450000000  0.0812600000000  0.3014230000000 1.0  -0.29
O      2 -0.0451740000000  0.2812290000000 -0.2427580000000 1.0  -0.32
O      2  0.0451740000000 -0.4760130000000  0.2427580000000 1.0  -0.32
O      2  0.4548260000000 -0.4760130000000  0.2427580000000 1.0  -0.32
O      2 -0.4548260000000  0.2812290000000 -0.2427580000000 1.0  -0.32
O      2 -0.2500000000000 -0.0342200000000 -0.2818140000000 1.0  -0.27
O      2  0.2500000000000  0.2475940000000  0.2818140000000 1.0  -0.27
S      3  0.2500000000000  0.0276990000000 -0.3051480000000 1.0  -0.28
S      3 -0.2500000000000  0.3328470000000  0.3051480000000 1.0  -0.28
Fe     4 -0.5059150000000 -0.0588670000000 -0.2381110000000 1.0  -2.93
Fe     4  0.5059150000000  0.1792440000000  0.2381110000000 1.0  -2.93
Fe     4 -0.0059150000000  0.1792440000000  0.2381110000000 1.0  -2.93
Fe     4  0.0059150000000 -0.0588670000000 -0.2381110000000 1.0  -2.93
Fe     4 -0.2500000000000  0.2067690000000 -0.4422560000000 1.0  -2.43
Fe     4  0.2500000000000 -0.3509750000000  0.4422560000000 1.0  -2.43
END
