TITL LFSO-Li4Fe3SO4-200927-194953-259795 -0.0833 362.620242 -10885.90666406 -0.414709E-01 0.188710 24 (P3) n - 1
REM
REM Run started: Wed, 30 Sep 2020 01:08:10 +0100 in /scratch/scratch/uccabz1/launch_tmp/launcher_2020-09-29-08-57-04-379335
REM CASTEP 19.11| from code version Version unavailable
REM Functional Perdew Burke Ernzerhof Relativity Koelling-Harmon Dispersion off
REM Cut-off 340.0000 eV Grid scale 1.7500 Gmax 16.5316 1/A FBSC none
REM MP grid 2 3 3 Offset 0.000 0.000 0.000 No. kpts 5 Spacing 0.07
REM Total runtime: 142112 s
REM Overall efficiency: 73.6364 %
REM
REM
REM
REM compiler GCC version 4.9.2
REM options -cpp -iprefix /lustre/shared/ucl/apps/gcc/4.9.2/bin/../lib/gcc/x86_64-unknown-linux-gnu/4.9.2/ -mtune=corei7 -march=x86-64 -g -Og
REM COMMAND_LINE
REM seed -649748429 -637352447 -1345640864 1019569975 1557700376 638231976 -1315966696 -1632646711 -1001617783 2065399092 451757383 1554002668
REM
REM S 3|1.8|5|6|7|30:31:32(qc=5)
REM O 2|1.5|12|13|15|20:21(qc=5)
REM Li 1|1.3|8|9|10|10U:20(qc=5)
REM Fe 3|2.2|2.0|1.0|8|9|10|40:41:32(qc=5)
REM 
CELL 1.54180   12.60990    5.76242    5.76242  120.00000   90.00000   90.00000
LATT -1
SFAC Li O  S  Fe 
Li     1  0.3885590000000 -0.3411730000000  0.0037530000000 1.0  -0.00
Li     1  0.3885590000000  0.3449260000000  0.3411730000000 1.0  -0.00
Li     1  0.3885590000000 -0.0037530000000 -0.3449260000000 1.0  -0.00
Li     1 -0.0805220000000  0.3205360000000  0.0289500000000 1.0  -0.00
Li     1 -0.0805220000000 -0.2915860000000 -0.3205360000000 1.0  -0.00
Li     1 -0.0805220000000 -0.0289500000000  0.2915860000000 1.0  -0.00
Li     1  0.0641660000000 -0.3333330000000  0.3333330000000 1.0  -0.00
Li     1 -0.2387460000000  0.0000000000000  0.0000000000000 1.0   0.00
O      2 -0.3996020000000  0.0118470000000 -0.4039450000000 1.0  -0.00
O      2 -0.3996020000000 -0.4157910000000 -0.0118470000000 1.0  -0.00
O      2 -0.3996020000000  0.4039450000000  0.4157910000000 1.0  -0.00
O      2  0.4173570000000  0.0065040000000  0.3249470000000 1.0  -0.01
O      2  0.4173570000000  0.3184430000000 -0.0065040000000 1.0  -0.01
O      2  0.4173570000000 -0.3249470000000 -0.3184430000000 1.0  -0.01
O      2 -0.3775710000000 -0.0000000000000  0.0000000000000 1.0   0.00
O      2 -0.1228050000000 -0.3333330000000  0.3333330000000 1.0  -0.00
S      3  0.0414850000000  0.0000000000000  0.0000000000000 1.0   0.00
S      3 -0.1709130000000  0.3333330000000 -0.3333330000000 1.0  -0.00
Fe     4 -0.2596120000000 -0.0629360000000 -0.5046240000000 1.0  -0.00
Fe     4 -0.2596120000000 -0.4416890000000  0.0629360000000 1.0  -0.00
Fe     4 -0.2596120000000  0.5046240000000  0.4416890000000 1.0  -0.00
Fe     4 -0.4414890000000  0.0255970000000  0.3019230000000 1.0  -0.04
Fe     4 -0.4414890000000  0.2763260000000 -0.0255970000000 1.0  -0.04
Fe     4 -0.4414890000000 -0.3019230000000 -0.2763260000000 1.0  -0.04
END
