TITL LFSO-Li3Fe3SO5-200927-032847-3c5b99 0.2143 160.955079 -5682.813522482 10.2308 10.4664 12 (C2) n - 1
REM
REM Run started: Mon, 28 Sep 2020 09:24:18 +0100 in /lustre/scratch/uccabz1/launch_tmp/launcher_2020-09-27-02-28-46-376408
REM CASTEP 20.1 from code version af48c487+ pr-geom-scf-spinfix Tue Jun 2 15:39:59 2020 +0100
REM Functional Perdew Burke Ernzerhof Relativity Koelling-Harmon Dispersion off
REM Cut-off 340.0000 eV Grid scale 1.7500 Gmax 16.5316 1/A FBSC none
REM MP grid 5 3 2 Offset 0.000 0.000 0.000 No. kpts 15 Spacing 0.07
REM Total runtime: 59703.7 s
REM Overall efficiency: 97.8333 %
REM
REM
REM
REM compiler GCC version 4.9.2
REM options -cpp -iprefix /lustre/shared/ucl/apps/gcc/4.9.2/bin/../lib/gcc/x86_64-unknown-linux-gnu/4.9.2/ -mtune=corei7 -march=x86-64 -g -Og
REM COMMAND_LINE
REM seed -573505938 -1594691381 -1530162177 -1415624772 1690956767 -1541188286 -561213714 -2134589807 101727441 -1774897258 -721747629 1057457742
REM
REM S 3|1.8|5|6|7|30:31:32(qc=5)
REM O 2|1.5|12|13|15|20:21(qc=5)
REM Li 1|1.3|8|9|10|10U:20(qc=5)
REM Fe 3|2.2|2.0|1.0|8|9|10|40:41:32(qc=5)
REM 
CELL 1.54180    3.45434    6.69030    8.28990  117.07708  107.96373   75.64149
LATT -1
SFAC Li O  S  Fe 
Li     1 -0.6868910000000 -0.2521330000000 -0.1564370000000 1.0  -0.01
Li     1  0.5304540000000  0.0956960000000 -0.1564370000000 1.0  -0.01
Li     1 -0.0275870000000  0.4724130000000 -0.0551730000000 1.0   0.03
O      2 -0.1604730000000 -0.4082830000000 -0.2278490000000 1.0   0.22
O      2 -0.0673750000000  0.1804340000000 -0.2278490000000 1.0   0.22
O      2 -0.4806990000000  0.0574140000000  0.3949890000000 1.0   0.31
O      2 -0.1243120000000 -0.6624250000000  0.3949890000000 1.0   0.31
O      2 -0.4683090000000  0.0316910000000  0.0633810000000 1.0   0.32
S      3  0.1259910000000 -0.3740090000000  0.2519830000000 1.0   0.08
Fe     4 -0.0373410000000 -0.0195650000000  0.2684020000000 1.0   3.25
Fe     4  0.3057440000000  0.2879670000000  0.2684020000000 1.0   3.25
Fe     4 -0.1978500000000  0.3021500000000 -0.3957000000000 1.0   2.72
END
