TITL LFSO-LiFeSO-200909-024818-92be79 -0.0553 284.445783 -7.21977520E+003 9.04621 13.8230 16 (P3) n - 1
REM
REM Run started: Wed, 09 Sep 2020 07:44:41 +0100 in /lustre/scratch/uccabz1/launch_tmp/launcher_2020-09-09-01-48-16-492186
REM CASTEP 20.1 from code version af48c487+ pr-geom-scf-spinfix Tue Jun 2 15:39:59 2020 +0100
REM Functional Perdew Burke Ernzerhof Relativity Koelling-Harmon Dispersion off
REM Cut-off 340.0000 eV Grid scale 1.7500 Gmax 16.5316 1/A FBSC none
REM MP grid 3 3 3 Offset 0.000 0.000 0.000 No. kpts 8 Spacing 0.07
REM Total runtime: 18084.2 s
REM Overall efficiency: 89.8889 %
REM
REM
REM
REM compiler GCC version 4.9.2
REM options -cpp -iprefix /lustre/shared/ucl/apps/gcc/4.9.2/bin/../lib/gcc/x86_64-unknown-linux-gnu/4.9.2/ -mtune=corei7 -march=x86-64 -g -Og
REM COMMAND_LINE
REM seed 386900985 -868053749 926641979 115821507 -921726863 -650572529 -1691965907 -237225555 -1993282881 -1076218308 131434107 -1336389302
REM
REM S 3|1.8|5|6|7|30:31:32(qc=5)
REM O 2|1.5|12|13|15|20:21(qc=5)
REM Li 1|1.3|8|9|10|10U:20(qc=5)
REM Fe 3|2.2|2.0|1.0|8|9|10|40:41:32(qc=5)
REM 
CELL 1.54180    6.34497    7.19481    7.19481  120.00000   90.00000   90.00000
LATT -1
SFAC Li O  S  Fe 
Li     1  0.2637790000000 -0.3731110000000 -0.1766980000000 1.0   0.02
Li     1  0.2637790000000  0.1766980000000 -0.1964130000000 1.0   0.02
Li     1  0.2637790000000  0.1964130000000  0.3731110000000 1.0   0.02
Li     1 -0.0438910000000 -0.0000000000000  0.0000000000000 1.0  -0.06
O      2  0.1580320000000  0.4707000000000 -0.0425060000000 1.0   0.54
O      2  0.1580320000000  0.0425060000000  0.5132060000000 1.0   0.54
O      2  0.1580320000000 -0.5132060000000 -0.4707000000000 1.0   0.54
O      2 -0.1504990000000 -0.3333330000000  0.3333330000000 1.0   0.21
S      3 -0.2649440000000 -0.3312630000000 -0.1594490000000 1.0   0.01
S      3 -0.2649440000000  0.1594490000000 -0.1718140000000 1.0   0.01
S      3 -0.2649440000000  0.1718140000000  0.3312630000000 1.0   0.01
S      3  0.3116590000000 -0.0000000000000  0.0000000000000 1.0  -0.08
Fe     4 -0.1020970000000 -0.0294000000000  0.4791670000000 1.0   3.18
Fe     4 -0.1020970000000 -0.4791670000000 -0.5085670000000 1.0   3.18
Fe     4 -0.1020970000000  0.5085670000000  0.0294000000000 1.0   3.18
Fe     4 -0.2919050000000  0.3333330000000 -0.3333330000000 1.0  -2.26
END
