TITL LFSO-LiFe3S3O2-200909-123256-b1974c 0.0508 152.506325 -4.57720569E+003 6.29800 6.52092 9 (P2) n - 1
REM
REM Run started: Wed, 09 Sep 2020 14:01:31 +0100 in /lustre/scratch/uccabz1/launch_tmp/launcher_2020-09-09-11-32-54-931928
REM CASTEP 20.1 from code version af48c487+ pr-geom-scf-spinfix Tue Jun 2 15:39:59 2020 +0100
REM Functional Perdew Burke Ernzerhof Relativity Koelling-Harmon Dispersion off
REM Cut-off 340.0000 eV Grid scale 1.7500 Gmax 16.5316 1/A FBSC none
REM MP grid 6 3 2 Offset 0.000 0.000 0.000 No. kpts 12 Spacing 0.07
REM Total runtime: 5804.21 s
REM Overall efficiency: 96.1429 %
REM
REM
REM
REM compiler GCC version 4.9.2
REM options -cpp -iprefix /lustre/shared/ucl/apps/gcc/4.9.2/bin/../lib/gcc/x86_64-unknown-linux-gnu/4.9.2/ -mtune=corei7 -march=x86-64 -g -Og
REM COMMAND_LINE
REM seed 182320915 868443245 1718039823 475017159 -83284419 279519240 2123663351 1626440262 1179844311 26670068 -1472763835 222547682
REM
REM S 3|1.8|5|6|7|30:31:32(qc=5)
REM O 2|1.5|12|13|15|20:21(qc=5)
REM Li 1|1.3|8|9|10|10U:20(qc=5)
REM Fe 3|2.2|2.0|1.0|8|9|10|40:41:32(qc=5)
REM 
CELL 1.54180    2.86478    6.61973    8.04627   90.00000   88.10203   90.00000
LATT -1
SFAC Li O  S  Fe 
Li     1 -0.5000000000000  0.4304460000000 -0.5000000000000 1.0   0.02
O      2 -0.2940260000000 -0.4179990000000  0.3186590000000 1.0   0.24
O      2  0.2940260000000 -0.4179990000000 -0.3186590000000 1.0   0.24
S      3 -0.0248360000000  0.0768160000000 -0.3112950000000 1.0   0.02
S      3  0.0248360000000  0.0768160000000  0.3112950000000 1.0   0.02
S      3  0.5000000000000 -0.1670510000000  0.0000000000000 1.0   0.12
Fe     4 -0.2100020000000 -0.2633140000000 -0.2494100000000 1.0   2.59
Fe     4  0.2100020000000 -0.2633140000000  0.2494100000000 1.0   2.59
Fe     4  0.5000000000000 -0.0142430000000  0.5000000000000 1.0   0.48
END
