TITL LFSO-Li4Fe3S2O3-200928-063635-99019e -1.1889 415.713415 -10621.70408820 8.43399 20.4855 24 (C2221) n - 1
REM
REM Run started: Wed, 30 Sep 2020 06:34:09 +0100 in /scratch/scratch/uccabz1/launch_tmp/launcher_2020-09-30-05-34-03-934047
REM CASTEP 19.11| from code version Version unavailable
REM Functional Perdew Burke Ernzerhof Relativity Koelling-Harmon Dispersion off
REM Cut-off 340.0000 eV Grid scale 1.7500 Gmax 16.5316 1/A FBSC none
REM MP grid 5 5 1 Offset 0.000 0.000 0.000 No. kpts 9 Spacing 0.07
REM Total runtime: 124479 s
REM Overall efficiency: 98.7143 %
REM
REM
REM
REM compiler GCC version 4.9.2
REM options -cpp -iprefix /scratch/UCL/applications/gcc/4.9.2/bin/../lib/gcc/x86_64-unknown-linux-gnu/4.9.2/ -mtune=corei7 -march=x86-64 -g -O2
REM COMMAND_LINE
REM seed 980865016 1750332279 -1492206853 -777300651 -1920744322 -498802853 -1650390931 -643464862 1354666543 -1125715061 -1549304463 -553238986
REM
REM S 3|1.8|5|6|7|30:31:32(qc=5)
REM O 2|1.5|12|13|15|20:21(qc=5)
REM Li 1|1.3|8|9|10|10U:20(qc=5)
REM Fe 3|2.2|2.0|1.0|8|9|10|40:41:32(qc=5)
REM 
CELL 1.54180    4.06303    4.06303   31.27306   90.00000   90.00000  126.36673
LATT -1
SFAC Li O  S  Fe 
Li     1 -0.0888660000000  0.4486790000000 -0.4291850000000 1.0  -0.06
Li     1  0.0888660000000 -0.4486790000000  0.0708150000000 1.0  -0.06
Li     1  0.4486790000000 -0.0888660000000 -0.0708150000000 1.0  -0.06
Li     1 -0.4486790000000  0.0888660000000  0.4291850000000 1.0  -0.06
Li     1 -0.0085810000000 -0.3206200000000  0.3021860000000 1.0   0.02
Li     1  0.0085810000000  0.3206200000000 -0.1978140000000 1.0   0.02
Li     1 -0.3206200000000 -0.0085810000000  0.1978140000000 1.0   0.02
Li     1  0.3206200000000  0.0085810000000 -0.3021860000000 1.0   0.02
O      2  0.2830970000000 -0.6085220000000  0.3090100000000 1.0   0.14
O      2 -0.2830970000000  0.6085220000000 -0.1909900000000 1.0   0.14
O      2 -0.6085220000000  0.2830970000000  0.1909900000000 1.0   0.14
O      2  0.6085220000000 -0.2830970000000 -0.3090100000000 1.0   0.14
O      2  0.1595940000000  0.1595940000000 -0.2500000000000 1.0  -0.21
O      2 -0.1595940000000 -0.1595940000000  0.2500000000000 1.0  -0.21
S      3 -0.2172370000000 -0.1342510000000  0.0899610000000 1.0   0.15
S      3  0.2172370000000  0.1342510000000 -0.4100390000000 1.0   0.15
S      3 -0.1342510000000 -0.2172370000000  0.4100390000000 1.0   0.15
S      3  0.1342510000000  0.2172370000000 -0.0899610000000 1.0   0.15
Fe     4  0.3675430000000  0.3005380000000  0.1337700000000 1.0   3.40
Fe     4 -0.3675430000000 -0.3005380000000 -0.3662300000000 1.0   3.40
Fe     4  0.3005380000000  0.3675430000000  0.3662300000000 1.0   3.40
Fe     4 -0.3005380000000 -0.3675430000000 -0.1337700000000 1.0   3.40
Fe     4  0.3401610000000  0.3401610000000  0.2500000000000 1.0  -2.70
Fe     4 -0.3401610000000 -0.3401610000000 -0.2500000000000 1.0  -2.70
END
