TITL LFSO-Li6FeSO3-200909-212841-173d95 0.0733 310.189488 -7.36025840E+003 -8.09027 9.13303 22 (P3) n - 1
REM
REM Run started: Thu, 10 Sep 2020 03:11:19 +0100 in /lustre/scratch/uccabz1/launch_tmp/launcher_2020-09-09-20-28-39-503276
REM CASTEP 20.1 from code version af48c487+ pr-geom-scf-spinfix Tue Jun 2 15:39:59 2020 +0100
REM Functional Perdew Burke Ernzerhof Relativity Koelling-Harmon Dispersion off
REM Cut-off 340.0000 eV Grid scale 1.7500 Gmax 16.5316 1/A FBSC none
REM MP grid 3 3 3 Offset 0.000 0.000 0.000 No. kpts 8 Spacing 0.07
REM Total runtime: 20680.6 s
REM Overall efficiency: 93.625 %
REM
REM
REM
REM compiler GCC version 4.9.2
REM options -cpp -iprefix /lustre/shared/ucl/apps/gcc/4.9.2/bin/../lib/gcc/x86_64-unknown-linux-gnu/4.9.2/ -mtune=corei7 -march=x86-64 -g -Og
REM COMMAND_LINE
REM seed 1251416786 605313957 -1446410124 76394017 -2090628630 -1165640545 1449973033 -1549789173 1461264820 619995152 -1959794053 1053609156
REM
REM S 3|1.8|5|6|7|30:31:32(qc=5)
REM O 2|1.5|12|13|15|20:21(qc=5)
REM Li 1|1.3|8|9|10|10U:20(qc=5)
REM Fe 3|2.2|2.0|1.0|8|9|10|40:41:32(qc=5)
REM 
CELL 1.54180    6.78242    7.26701    7.26701  120.00000   90.00000   90.00000
LATT -1
SFAC Li O  S  Fe 
Li     1 -0.3780270000000 -0.0267770000000  0.3248890000000 1.0   0.15
Li     1 -0.3780270000000 -0.3248890000000  0.6483330000000 1.0   0.15
Li     1 -0.3780270000000 -0.6483330000000  0.0267770000000 1.0   0.15
Li     1 -0.2307600000000  0.1108440000000 -0.3074820000000 1.0  -0.02
Li     1 -0.2307600000000  0.3074820000000 -0.5816730000000 1.0  -0.02
Li     1 -0.2307600000000  0.5816730000000 -0.1108440000000 1.0  -0.02
Li     1  0.0144910000000 -0.0603970000000  0.1849540000000 1.0  -0.00
Li     1  0.0144910000000 -0.1849540000000 -0.2453510000000 1.0  -0.00
Li     1  0.0144910000000  0.2453510000000  0.0603970000000 1.0  -0.00
Li     1  0.1809440000000  0.0537360000000  0.5566820000000 1.0   0.06
Li     1  0.1809440000000 -0.5566820000000  0.4970540000000 1.0   0.06
Li     1  0.1809440000000 -0.4970540000000 -0.0537360000000 1.0   0.06
O      2  0.1589970000000  0.1862700000000  0.2557270000000 1.0  -0.27
O      2  0.1589970000000 -0.2557270000000 -0.0694570000000 1.0  -0.27
O      2  0.1589970000000  0.0694570000000 -0.1862700000000 1.0  -0.27
O      2 -0.1205290000000  0.5779440000000  0.5369080000000 1.0  -0.19
O      2 -0.1205290000000 -0.5369080000000  0.0410360000000 1.0  -0.19
O      2 -0.1205290000000 -0.0410360000000 -0.5779440000000 1.0  -0.19
S      3 -0.4870580000000  0.3333330000000 -0.3333330000000 1.0  -0.00
S      3 -0.3383460000000 -0.0000000000000  0.0000000000000 1.0  -0.06
Fe     4 -0.1234420000000 -0.3333330000000  0.3333330000000 1.0  -3.44
Fe     4  0.2993330000000 -0.0000000000000  0.0000000000000 1.0  -3.79
END
