TITL LFSO-Li4Fe3SO4-200930-101315-ad0e7a 0.0584 334.648778 -5.44262106E+003 5.99971 6.27661 12 (P-4) n - 1
REM
REM Run started: Wed, 30 Sep 2020 12:47:35 +0100 in /lustre/scratch/uccabz1/launch_tmp/launcher_2020-09-30-09-13-13-444302
REM CASTEP 20.1 from code version af48c487+ pr-geom-scf-spinfix Tue Jun 2 15:39:59 2020 +0100
REM Functional Perdew Burke Ernzerhof Relativity Koelling-Harmon Dispersion off
REM Cut-off 340.0000 eV Grid scale 1.7500 Gmax 16.5316 1/A FBSC none
REM MP grid 3 3 3 Offset 0.000 0.000 0.000 No. kpts 6 Spacing 0.07
REM Total runtime: 9307.35 s
REM Overall efficiency: 93.7 %
REM
REM
REM
REM compiler GCC version 4.9.2
REM options -cpp -iprefix /lustre/shared/ucl/apps/gcc/4.9.2/bin/../lib/gcc/x86_64-unknown-linux-gnu/4.9.2/ -mtune=corei7 -march=x86-64 -g -Og
REM COMMAND_LINE
REM seed 643135373 332420511 -2096648570 -1447529070 2061679563 -805304300 56528639 1101436546 -177379109 -1064073771 -868459425 368902719
REM
REM S 3|1.8|5|6|7|30:31:32(qc=5)
REM O 2|1.5|12|13|15|20:21(qc=5)
REM Li 1|1.3|8|9|10|10U:20(qc=5)
REM Fe 3|2.2|2.0|1.0|8|9|10|40:41:32(qc=5)
REM 
CELL 1.54180    7.05914    7.05914    6.71561   90.00000   90.00000   90.00000
LATT -1
SFAC Li O  S  Fe 
Li     1 -0.2664760000000 -0.3374790000000 -0.1703430000000 1.0  -0.00
Li     1  0.2664760000000  0.3374790000000 -0.1703430000000 1.0  -0.00
Li     1 -0.3374790000000  0.2664760000000  0.1703430000000 1.0  -0.00
Li     1  0.3374790000000 -0.2664760000000  0.1703430000000 1.0  -0.00
O      2 -0.1182280000000 -0.1632310000000 -0.2957070000000 1.0   0.17
O      2  0.1182280000000  0.1632310000000 -0.2957070000000 1.0   0.17
O      2 -0.1632310000000  0.1182280000000  0.2957070000000 1.0   0.17
O      2  0.1632310000000 -0.1182280000000  0.2957070000000 1.0   0.17
S      3 -0.5000000000000  0.5000000000000  0.0000000000000 1.0   0.01
Fe     4  0.0000000000000  0.0000000000000 -0.1446330000000 1.0   0.98
Fe     4  0.0000000000000  0.0000000000000  0.1446330000000 1.0   0.98
Fe     4  0.0000000000000  0.0000000000000  0.5000000000000 1.0   3.37
END
