TITL LFSO-LiFe3S3O2-200909-135812-3769ec 0.0210 156.426550 -4.57761691E+003 3.01225 3.30317 9 (R3) n - 1
REM
REM Run started: Wed, 09 Sep 2020 14:33:35 +0100 in /lustre/scratch/uccabz1/launch_tmp/launcher_2020-09-09-12-58-09-846566
REM CASTEP 20.1 from code version af48c487+ pr-geom-scf-spinfix Tue Jun 2 15:39:59 2020 +0100
REM Functional Perdew Burke Ernzerhof Relativity Koelling-Harmon Dispersion off
REM Cut-off 340.0000 eV Grid scale 1.7500 Gmax 16.5316 1/A FBSC none
REM MP grid 3 3 3 Offset 0.000 0.000 0.000 No. kpts 6 Spacing 0.07
REM Total runtime: 2670.71 s
REM Overall efficiency: 94 %
REM
REM
REM
REM compiler GCC version 4.9.2
REM options -cpp -iprefix /lustre/shared/ucl/apps/gcc/4.9.2/bin/../lib/gcc/x86_64-unknown-linux-gnu/4.9.2/ -mtune=corei7 -march=x86-64 -g -Og
REM COMMAND_LINE
REM seed 1068105271 1117750494 -668165135 2052903958 500605605 1848892739 -1938435478 1530420507 -764940515 -146634331 -17862597 1321233089
REM
REM S 3|1.8|5|6|7|30:31:32(qc=5)
REM O 2|1.5|12|13|15|20:21(qc=5)
REM Li 1|1.3|8|9|10|10U:20(qc=5)
REM Fe 3|2.2|2.0|1.0|8|9|10|40:41:32(qc=5)
REM 
CELL 1.54180    5.94021    5.94021    5.94021   62.48606   62.48606   62.48606
LATT -1
SFAC Li O  S  Fe 
Li     1 -0.3004660000000 -0.3004660000000 -0.3004660000000 1.0  -0.05
O      2  0.2983430000000  0.2983430000000  0.2983430000000 1.0   0.07
O      2  0.1286360000000  0.1286360000000  0.1286360000000 1.0   0.06
S      3 -0.3686020000000  0.2127930000000 -0.2044730000000 1.0   0.05
S      3 -0.2044730000000 -0.3686020000000  0.2127930000000 1.0   0.05
S      3  0.2127930000000 -0.2044730000000 -0.3686020000000 1.0   0.05
Fe     4  0.4532800000000 -0.0274590000000  0.2150750000000 1.0   0.93
Fe     4  0.2150750000000  0.4532800000000 -0.0274590000000 1.0   0.93
Fe     4 -0.0274590000000  0.2150750000000  0.4532800000000 1.0   0.93
END
