TITL LFSO-Li3Fe3S5O-201002-142807-b15336 -0.0132 217.622809 -5.14699342E+003 2.90571 3.28833 12 (R3) n - 1
REM
REM Run started: Fri, 02 Oct 2020 16:31:04 +0100 in /lustre/scratch/uccabz1/launch_tmp/launcher_2020-10-02-13-28-05-193447
REM CASTEP 20.1 from code version af48c487+ pr-geom-scf-spinfix Tue Jun 2 15:39:59 2020 +0100
REM Functional Perdew Burke Ernzerhof Relativity Koelling-Harmon Dispersion off
REM Cut-off 340.0000 eV Grid scale 1.7500 Gmax 16.5316 1/A FBSC none
REM MP grid 3 3 3 Offset 0.000 0.000 0.000 No. kpts 6 Spacing 0.07
REM Total runtime: 7559.79 s
REM Overall efficiency: 95.2857 %
REM
REM
REM
REM compiler GCC version 4.9.2
REM options -cpp -iprefix /lustre/shared/ucl/apps/gcc/4.9.2/bin/../lib/gcc/x86_64-unknown-linux-gnu/4.9.2/ -mtune=corei7 -march=x86-64 -g -Og
REM COMMAND_LINE
REM seed -1182322812 113450437 1227251286 -1707167834 2029340063 -1037961065 1991235984 -805346076 -787116635 471738837 -197623306 1856527670
REM
REM S 3|1.8|5|6|7|30:31:32(qc=5)
REM O 2|1.5|12|13|15|20:21(qc=5)
REM Li 1|1.3|8|9|10|10U:20(qc=5)
REM Fe 3|2.2|2.0|1.0|8|9|10|40:41:32(qc=5)
REM 
CELL 1.54180    6.37747    6.37747    7.19237   63.68215   63.68215   60.00000
LATT -1
SFAC Li O  S  Fe 
Li     1 -0.3859050000000  0.3583900000000  0.1473280000000 1.0   0.02
Li     1  0.3583900000000 -0.1198140000000  0.1473280000000 1.0   0.02
Li     1 -0.1198140000000 -0.3859050000000  0.1473280000000 1.0   0.02
O      2 -0.3602890000000 -0.3602890000000  0.0808660000000 1.0  -0.05
S      3 -0.3338000000000 -0.3417240000000 -0.4663010000000 1.0   0.11
S      3 -0.3417240000000  0.1418250000000 -0.4663010000000 1.0   0.11
S      3  0.1418250000000 -0.3338000000000 -0.4663010000000 1.0   0.11
S      3  0.0780080000000  0.0780080000000 -0.2340250000000 1.0   0.01
S      3  0.3359480000000  0.3359480000000 -0.0078430000000 1.0   0.09
Fe     4  0.2872470000000  0.2921360000000 -0.2747710000000 1.0   0.82
Fe     4  0.2921360000000 -0.3046120000000 -0.2747710000000 1.0   0.82
Fe     4 -0.3046120000000  0.2872470000000 -0.2747710000000 1.0   0.82
END
