TITL LFSO-Li2Fe2SO2-200912-235754-946166 0.0617 284.907400 -9.92072054E+003 -18.6129 19.0726 21 (C2) n - 1
REM
REM Run started: Sun, 13 Sep 2020 19:08:07 +0100 in /lustre/scratch/uccabz1/launch_tmp/launcher_2020-09-12-22-57-53-176704
REM CASTEP 20.1 from code version af48c487+ pr-geom-scf-spinfix Tue Jun 2 15:39:59 2020 +0100
REM Functional Perdew Burke Ernzerhof Relativity Koelling-Harmon Dispersion off
REM Cut-off 340.0000 eV Grid scale 1.7500 Gmax 16.5316 1/A FBSC none
REM MP grid 3 3 3 Offset 0.000 0.000 0.000 No. kpts 10 Spacing 0.07
REM Total runtime: 74782.5 s
REM Overall efficiency: 78.25 %
REM
REM
REM
REM compiler GCC version 4.9.2
REM options -cpp -iprefix /lustre/shared/ucl/apps/gcc/4.9.2/bin/../lib/gcc/x86_64-unknown-linux-gnu/4.9.2/ -mtune=corei7 -march=x86-64 -g -Og
REM COMMAND_LINE
REM seed 626727265 238421758 1262377111 -911674481 -606523448 1782842043 -1077008427 1663256661 1313200083 1394357414 -471894049 -1443129715
REM
REM S 3|1.8|5|6|7|30:31:32(qc=5)
REM O 2|1.5|12|13|15|20:21(qc=5)
REM Li 1|1.3|8|9|10|10U:20(qc=5)
REM Fe 3|2.2|2.0|1.0|8|9|10|40:41:32(qc=5)
REM 
CELL 1.54180    5.32972    9.42773    9.42773   37.90771   78.85797   78.85797
LATT -1
SFAC Li O  S  Fe 
Li     1 -0.3156980000000  0.3390230000000 -0.2842600000000 1.0  -0.01
Li     1  0.3156980000000  0.2842600000000 -0.3390230000000 1.0  -0.01
Li     1  0.4876350000000  0.0184510000000  0.6758840000000 1.0  -0.01
Li     1 -0.4876350000000 -0.6758840000000 -0.0184510000000 1.0  -0.01
Li     1 -0.1554860000000 -0.0331170000000 -0.0864920000000 1.0   0.04
Li     1  0.1554860000000  0.0864920000000  0.0331170000000 1.0   0.04
O      2 -0.6682550000000 -0.6251180000000 -0.2137490000000 1.0  -0.20
O      2  0.6682550000000  0.2137490000000  0.6251180000000 1.0  -0.20
O      2 -0.3463340000000 -0.3519140000000  0.0869160000000 1.0  -0.21
O      2  0.3463340000000 -0.0869160000000  0.3519140000000 1.0  -0.21
O      2 -0.2111870000000  0.1312400000000  0.0175180000000 1.0  -0.32
O      2  0.2111870000000 -0.0175180000000 -0.1312400000000 1.0  -0.32
S      3  0.2317530000000  0.3310910000000  0.2440790000000 1.0  -0.06
S      3 -0.2317530000000 -0.2440790000000 -0.3310910000000 1.0  -0.06
S      3  0.0000000000000 -0.3827660000000  0.3827660000000 1.0  -0.24
Fe     4  0.1379170000000 -0.3522850000000 -0.4141630000000 1.0  -2.84
Fe     4 -0.1379170000000  0.4141630000000  0.3522850000000 1.0  -2.84
Fe     4  0.2734970000000 -0.3280230000000  0.1102070000000 1.0  -3.13
Fe     4 -0.2734970000000 -0.1102070000000  0.3280230000000 1.0  -3.13
Fe     4  0.0640480000000  0.0195700000000  0.4086560000000 1.0  -2.44
Fe     4 -0.0640480000000 -0.4086560000000 -0.0195700000000 1.0  -2.44
END
