TITL LFSO-Li3Fe3S5O-200929-042139-efa75b 0.0466 178.330079 -5.14684330E+003 9.90584 10.1434 12 (R3) n - 1
REM
REM Run started: Tue, 29 Sep 2020 05:32:57 +0100 in /lustre/scratch/uccabz1/launch_tmp/launcher_2020-09-29-03-21-36-561258
REM CASTEP 20.1 from code version af48c487+ pr-geom-scf-spinfix Tue Jun 2 15:39:59 2020 +0100
REM Functional Perdew Burke Ernzerhof Relativity Koelling-Harmon Dispersion off
REM Cut-off 340.0000 eV Grid scale 1.7500 Gmax 16.5316 1/A FBSC none
REM MP grid 3 3 3 Offset 0.000 0.000 0.000 No. kpts 6 Spacing 0.07
REM Total runtime: 4324.55 s
REM Overall efficiency: 92.7143 %
REM
REM
REM
REM compiler GCC version 4.9.2
REM options -cpp -iprefix /lustre/shared/ucl/apps/gcc/4.9.2/bin/../lib/gcc/x86_64-unknown-linux-gnu/4.9.2/ -mtune=corei7 -march=x86-64 -g -Og
REM COMMAND_LINE
REM seed -1602542685 -106987917 -483384668 900304140 -1837788734 1056668777 -1880928919 1907349338 -1601593529 -185668579 -701979077 -359446301
REM
REM S 3|1.8|5|6|7|30:31:32(qc=5)
REM O 2|1.5|12|13|15|20:21(qc=5)
REM Li 1|1.3|8|9|10|10U:20(qc=5)
REM Fe 3|2.2|2.0|1.0|8|9|10|40:41:32(qc=5)
REM 
CELL 1.54180    6.02627    6.02627    6.02627   67.11727   67.11727   67.11727
LATT -1
SFAC Li O  S  Fe 
Li     1  0.0789270000000  0.3332210000000 -0.1613410000000 1.0  -0.03
Li     1  0.3332210000000 -0.1613410000000  0.0789270000000 1.0  -0.03
Li     1 -0.1613410000000  0.0789270000000  0.3332210000000 1.0  -0.03
O      2  0.2184410000000  0.2184410000000  0.2184410000000 1.0   0.25
S      3  0.4756420000000  0.0863350000000 -0.3221490000000 1.0   0.16
S      3  0.0863350000000 -0.3221490000000  0.4756420000000 1.0   0.16
S      3 -0.3221490000000  0.4756420000000  0.0863350000000 1.0   0.16
S      3 -0.0653580000000 -0.0653580000000 -0.0653580000000 1.0   0.17
S      3 -0.4195530000000 -0.4195530000000 -0.4195530000000 1.0   0.19
Fe     4 -0.4556090000000  0.2538420000000 -0.0638280000000 1.0   2.97
Fe     4  0.2538420000000 -0.0638280000000 -0.4556090000000 1.0   2.97
Fe     4 -0.0638280000000 -0.4556090000000  0.2538420000000 1.0   2.97
END
