TITL LFSO-Li2Fe3SO3-200912-152700-ea338d -0.3954 260.300747 -9.21386438E+003 22.6351 23.0369 18 (R3) n - 1
REM
REM Run started: Sun, 13 Sep 2020 01:08:33 +0100 in /lustre/scratch/uccabz1/launch_tmp/launcher_2020-09-12-14-26-59-367011
REM CASTEP 20.1 from code version af48c487+ pr-geom-scf-spinfix Tue Jun 2 15:39:59 2020 +0100
REM Functional Perdew Burke Ernzerhof Relativity Koelling-Harmon Dispersion off
REM Cut-off 340.0000 eV Grid scale 1.7500 Gmax 16.5316 1/A FBSC none
REM MP grid 3 3 3 Offset 0.000 0.000 0.000 No. kpts 6 Spacing 0.07
REM Total runtime: 39877.1 s
REM Overall efficiency: 98.3333 %
REM
REM
REM
REM compiler GCC version 4.9.2
REM options -cpp -iprefix /lustre/shared/ucl/apps/gcc/4.9.2/bin/../lib/gcc/x86_64-unknown-linux-gnu/4.9.2/ -mtune=corei7 -march=x86-64 -g -Og
REM COMMAND_LINE
REM seed 1469635603 1144624976 -432484832 853520187 1912904470 841607502 -536621629 -73043221 -288859074 -796143553 901507286 1563118933
REM
REM S 3|1.8|5|6|7|30:31:32(qc=5)
REM O 2|1.5|12|13|15|20:21(qc=5)
REM Li 1|1.3|8|9|10|10U:20(qc=5)
REM Fe 3|2.2|2.0|1.0|8|9|10|40:41:32(qc=5)
REM 
CELL 1.54180    6.81110    6.81110    6.81110  107.38944  107.38944  107.38944
LATT -1
SFAC Li O  S  Fe 
Li     1  0.2367510000000  0.1730100000000 -0.4590080000000 1.0  -0.01
Li     1 -0.4590080000000  0.2367510000000  0.1730100000000 1.0  -0.01
Li     1  0.1730100000000 -0.4590080000000  0.2367510000000 1.0  -0.01
Li     1 -0.2914050000000 -0.2914050000000 -0.2914050000000 1.0  -0.13
O      2 -0.1136240000000 -0.0128610000000  0.4673870000000 1.0   0.33
O      2  0.4673870000000 -0.1136240000000 -0.0128610000000 1.0   0.33
O      2 -0.0128610000000  0.4673870000000 -0.1136240000000 1.0   0.33
O      2  0.4326990000000  0.2455330000000 -0.1385140000000 1.0   0.37
O      2 -0.1385140000000  0.4326990000000  0.2455330000000 1.0   0.37
O      2  0.2455330000000 -0.1385140000000  0.4326990000000 1.0   0.37
S      3  0.0094870000000  0.0094870000000  0.0094870000000 1.0   0.30
S      3  0.4300250000000  0.4300250000000  0.4300250000000 1.0   0.07
Fe     4 -0.5533000000000 -0.0417450000000 -0.2723010000000 1.0   3.30
Fe     4 -0.2723010000000 -0.5533000000000 -0.0417450000000 1.0   3.30
Fe     4 -0.0417450000000 -0.2723010000000 -0.5533000000000 1.0   3.30
Fe     4 -0.1235130000000  0.1424330000000 -0.2513670000000 1.0   3.48
Fe     4 -0.2513670000000 -0.1235130000000  0.1424330000000 1.0   3.48
Fe     4  0.1424330000000 -0.2513670000000 -0.1235130000000 1.0   3.48
END
