TITL LFSO-Li4Fe3S2O3-200928-012231-c29178 0.0201 457.822201 -1.06216360E+004 23.7505 24.1243 24 (R3) n - 1
REM
REM Run started: Mon, 28 Sep 2020 14:42:32 +0100 in /scratch/scratch/uccabz1/launch_tmp/launcher_2020-09-28-00-22-30-005483
REM CASTEP 19.11| from code version Version unavailable
REM Functional Perdew Burke Ernzerhof Relativity Koelling-Harmon Dispersion off
REM Cut-off 340.0000 eV Grid scale 1.7500 Gmax 16.5316 1/A FBSC none
REM MP grid 3 3 3 Offset 0.000 0.000 0.000 No. kpts 6 Spacing 0.07
REM Total runtime: 48272.1 s
REM Overall efficiency: 98.2222 %
REM
REM
REM
REM compiler GCC version 4.9.2
REM options -cpp -iprefix /scratch/UCL/applications/gcc/4.9.2/bin/../lib/gcc/x86_64-unknown-linux-gnu/4.9.2/ -mtune=corei7 -march=x86-64 -g -O2
REM COMMAND_LINE
REM seed -1550374829 896086221 -475993985 1767906686 -2132731321 26810427 -1911352266 530333607 -935670969 1858797795 -1037284147 -1268362580
REM
REM S 3|1.8|5|6|7|30:31:32(qc=5)
REM O 2|1.5|12|13|15|20:21(qc=5)
REM Li 1|1.3|8|9|10|10U:20(qc=5)
REM Fe 3|2.2|2.0|1.0|8|9|10|40:41:32(qc=5)
REM 
CELL 1.54180    8.53108    8.53108    8.53108   61.91210   61.91210   61.91210
LATT -1
SFAC Li O  S  Fe 
Li     1 -0.4524830000000  0.2690020000000  0.1650280000000 1.0  -0.02
Li     1  0.1650280000000 -0.4524830000000  0.2690020000000 1.0  -0.02
Li     1  0.2690020000000  0.1650280000000 -0.4524830000000 1.0  -0.02
Li     1  0.6661420000000  0.2190420000000 -0.1984250000000 1.0   0.03
Li     1 -0.1984250000000  0.6661420000000  0.2190420000000 1.0   0.03
Li     1  0.2190420000000 -0.1984250000000  0.6661420000000 1.0   0.03
Li     1  0.1786400000000  0.1786400000000  0.1786400000000 1.0   0.07
Li     1 -0.0508560000000 -0.0508560000000 -0.0508560000000 1.0   0.03
O      2  0.4081210000000 -0.4795410000000  0.1130100000000 1.0   0.47
O      2  0.1130100000000  0.4081210000000 -0.4795410000000 1.0   0.47
O      2 -0.4795410000000  0.1130100000000  0.4081210000000 1.0   0.47
O      2 -0.0363280000000 -0.2313210000000  0.1878330000000 1.0   0.32
O      2  0.1878330000000 -0.0363280000000 -0.2313210000000 1.0   0.32
O      2 -0.2313210000000  0.1878330000000 -0.0363280000000 1.0   0.32
S      3 -0.5238640000000 -0.0175000000000 -0.0086640000000 1.0   0.19
S      3 -0.0086640000000 -0.5238640000000 -0.0175000000000 1.0   0.19
S      3 -0.0175000000000 -0.0086640000000 -0.5238640000000 1.0   0.19
S      3 -0.3417380000000 -0.3417380000000 -0.3417380000000 1.0   0.29
Fe     4 -0.0943980000000  0.2430780000000  0.0246000000000 1.0   3.19
Fe     4  0.0246000000000 -0.0943980000000  0.2430780000000 1.0   3.19
Fe     4  0.2430780000000  0.0246000000000 -0.0943980000000 1.0   3.19
Fe     4 -0.2912510000000 -0.0481530000000  0.4927940000000 1.0   3.62
Fe     4  0.4927940000000 -0.2912510000000 -0.0481530000000 1.0   3.62
Fe     4 -0.0481530000000  0.4927940000000 -0.2912510000000 1.0   3.62
END
