TITL LFSO-Li4Fe3S2O3-201001-210651-4af7e5 0.3573 174.633578 -5.31245249E+003 -8.20325 8.46102 12 (P2) n - 1
REM
REM Run started: Fri, 02 Oct 2020 01:41:45 +0100 in /lustre/scratch/uccabz1/launch_tmp/launcher_2020-10-01-20-06-49-552872
REM CASTEP 20.1 from code version af48c487+ pr-geom-scf-spinfix Tue Jun 2 15:39:59 2020 +0100
REM Functional Perdew Burke Ernzerhof Relativity Koelling-Harmon Dispersion off
REM Cut-off 340.0000 eV Grid scale 1.7500 Gmax 16.5316 1/A FBSC none
REM MP grid 5 2 3 Offset 0.000 0.000 0.000 No. kpts 10 Spacing 0.07
REM Total runtime: 11875.2 s
REM Overall efficiency: 81.1667 %
REM
REM
REM
REM compiler GCC version 4.9.2
REM options -cpp -iprefix /lustre/shared/ucl/apps/gcc/4.9.2/bin/../lib/gcc/x86_64-unknown-linux-gnu/4.9.2/ -mtune=corei7 -march=x86-64 -g -Og
REM COMMAND_LINE
REM seed -1430486784 884067557 -448236054 -330125888 824596515 -1480506492 312544106 1639865583 -2027534813 249124923 1060012643 1285966397
REM
REM S 3|1.8|5|6|7|30:31:32(qc=5)
REM O 2|1.5|12|13|15|20:21(qc=5)
REM Li 1|1.3|8|9|10|10U:20(qc=5)
REM Fe 3|2.2|2.0|1.0|8|9|10|40:41:32(qc=5)
REM 
CELL 1.54180    3.98905   10.90870    5.26942   90.00000   90.00000  130.39520
LATT -1
SFAC Li O  S  Fe 
Li     1  0.4479430000000 -0.1424730000000  0.0447890000000 1.0  -0.00
Li     1 -0.4479430000000  0.1424730000000  0.0447890000000 1.0  -0.00
Li     1 -0.2049100000000 -0.1798150000000  0.3380570000000 1.0   0.03
Li     1  0.2049100000000  0.1798150000000  0.3380570000000 1.0   0.03
O      2 -0.1294490000000  0.3080190000000  0.2927160000000 1.0  -0.21
O      2  0.1294490000000 -0.3080190000000  0.2927160000000 1.0  -0.21
O      2  0.0000000000000  0.0000000000000  0.1514370000000 1.0  -0.01
S      3 -0.4691820000000 -0.3399040000000 -0.1957870000000 1.0  -0.07
S      3  0.4691820000000  0.3399040000000 -0.1957870000000 1.0  -0.07
Fe     4  0.1073290000000  0.4176920000000 -0.4064500000000 1.0  -2.42
Fe     4 -0.1073290000000 -0.4176920000000 -0.4064500000000 1.0  -2.42
Fe     4  0.0000000000000  0.5000000000000  0.1832350000000 1.0  -2.85
END
