TITL LFSO-LiFeSO-200909-031446-c9480a -0.0623 383.576420 -1.08331680E+004 -9.84979 16.6169 24 (P21/m) n - 1
REM
REM Run started: Wed, 09 Sep 2020 20:59:35 +0100 in /lustre/scratch/uccabz1/launch_tmp/launcher_2020-09-09-02-14-44-031844
REM CASTEP 20.1 from code version af48c487+ pr-geom-scf-spinfix Tue Jun 2 15:39:59 2020 +0100
REM Functional Perdew Burke Ernzerhof Relativity Koelling-Harmon Dispersion off
REM Cut-off 340.0000 eV Grid scale 1.7500 Gmax 16.5316 1/A FBSC none
REM MP grid 3 3 2 Offset 0.000 0.000 0.000 No. kpts 6 Spacing 0.07
REM Total runtime: 67159.4 s
REM Overall efficiency: 86.7273 %
REM
REM
REM
REM compiler GCC version 4.9.2
REM options -cpp -iprefix /lustre/shared/ucl/apps/gcc/4.9.2/bin/../lib/gcc/x86_64-unknown-linux-gnu/4.9.2/ -mtune=corei7 -march=x86-64 -g -Og
REM COMMAND_LINE
REM seed 332116349 -33590494 732306801 1310618352 -1941697120 1208373984 -867155969 26654832 -841476283 -1066075093 1218426019 1166666478
REM
REM S 3|1.8|5|6|7|30:31:32(qc=5)
REM O 2|1.5|12|13|15|20:21(qc=5)
REM Li 1|1.3|8|9|10|10U:20(qc=5)
REM Fe 3|2.2|2.0|1.0|8|9|10|40:41:32(qc=5)
REM 
CELL 1.54180    6.73404    6.89095   10.43627  127.62268   90.00000   90.00000
LATT -1
SFAC Li O  S  Fe 
Li     1 -0.0280410000000  0.4498370000000 -0.1319790000000 1.0  -0.01
Li     1 -0.5280410000000 -0.4498370000000  0.1319790000000 1.0  -0.01
Li     1  0.0280410000000 -0.4498370000000  0.1319790000000 1.0  -0.01
Li     1  0.5280410000000  0.4498370000000 -0.1319790000000 1.0  -0.01
Li     1  0.2500000000000 -0.1879040000000 -0.0348350000000 1.0   0.06
Li     1 -0.2500000000000  0.1879040000000  0.0348350000000 1.0   0.06
O      2  0.5354660000000  0.2479270000000 -0.0564110000000 1.0  -0.29
O      2  0.0354660000000 -0.2479270000000  0.0564110000000 1.0  -0.29
O      2 -0.5354660000000 -0.2479270000000  0.0564110000000 1.0  -0.29
O      2 -0.0354660000000  0.2479270000000 -0.0564110000000 1.0  -0.29
O      2 -0.2500000000000  0.0068590000000  0.2976340000000 1.0  -0.34
O      2  0.2500000000000 -0.0068590000000 -0.2976340000000 1.0  -0.34
S      3  0.0050180000000 -0.4172610000000 -0.3325380000000 1.0  -0.09
S      3 -0.4949820000000  0.4172610000000  0.3325380000000 1.0  -0.09
S      3 -0.0050180000000  0.4172610000000  0.3325380000000 1.0  -0.09
S      3  0.4949820000000 -0.4172610000000 -0.3325380000000 1.0  -0.09
S      3 -0.2500000000000 -0.0240200000000 -0.4006230000000 1.0   0.07
S      3  0.2500000000000  0.0240200000000  0.4006230000000 1.0   0.07
Fe     4 -0.0035020000000 -0.0311320000000 -0.2564280000000 1.0  -2.77
Fe     4 -0.5035020000000  0.0311320000000  0.2564280000000 1.0  -2.77
Fe     4  0.0035020000000  0.0311320000000  0.2564280000000 1.0  -2.77
Fe     4  0.5035020000000 -0.0311320000000 -0.2564280000000 1.0  -2.77
Fe     4 -0.2500000000000 -0.3920230000000 -0.4712390000000 1.0   1.62
Fe     4  0.2500000000000  0.3920230000000  0.4712390000000 1.0   1.62
END
