TITL LFSO-Li4Fe2S2O3-200911-124943-7bb66a 0.0341 138.105862 -4.44944609E+003 6.99743 7.20260 11 (P-1) n - 1
REM
REM Run started: Fri, 11 Sep 2020 16:09:14 +0100 in /lustre/scratch/uccabz1/launch_tmp/launcher_2020-09-11-11-49-41-737657
REM CASTEP 20.1 from code version af48c487+ pr-geom-scf-spinfix Tue Jun 2 15:39:59 2020 +0100
REM Functional Perdew Burke Ernzerhof Relativity Koelling-Harmon Dispersion off
REM Cut-off 340.0000 eV Grid scale 1.7500 Gmax 16.5316 1/A FBSC none
REM MP grid 6 3 2 Offset 0.000 0.000 0.000 No. kpts 18 Spacing 0.07
REM Total runtime: 12198.4 s
REM Overall efficiency: 96.0909 %
REM
REM
REM
REM compiler GCC version 4.9.2
REM options -cpp -iprefix /lustre/shared/ucl/apps/gcc/4.9.2/bin/../lib/gcc/x86_64-unknown-linux-gnu/4.9.2/ -mtune=corei7 -march=x86-64 -g -Og
REM COMMAND_LINE
REM seed -268947328 377250247 -1125329056 -2098705296 270071337 1702676625 -2104540706 249102019 1764037773 -1486385294 -142170817 2014607176
REM
REM S 3|1.8|5|6|7|30:31:32(qc=5)
REM O 2|1.5|12|13|15|20:21(qc=5)
REM Li 1|1.3|8|9|10|10U:20(qc=5)
REM Fe 3|2.2|2.0|1.0|8|9|10|40:41:32(qc=5)
REM 
CELL 1.54180    3.04888    6.16895    9.40008   74.01163   97.77206   59.48413
LATT -1
SFAC Li O  S  Fe 
Li     1  0.1806420000000  0.1913890000000 -0.3679090000000 1.0   0.05
Li     1 -0.1806420000000 -0.1913890000000  0.3679090000000 1.0   0.05
Li     1  0.6583430000000 -0.1837200000000 -0.1152130000000 1.0  -0.04
Li     1 -0.6583430000000  0.1837200000000  0.1152130000000 1.0  -0.04
O      2 -0.8345290000000 -0.0985450000000  0.2106740000000 1.0   0.31
O      2  0.8345290000000  0.0985450000000 -0.2106740000000 1.0   0.31
O      2 -0.5000000000000 -0.5000000000000  0.0000000000000 1.0   0.23
S      3  0.6743780000000 -0.3199850000000 -0.3554520000000 1.0   0.07
S      3 -0.6743780000000  0.3199850000000  0.3554520000000 1.0   0.07
Fe     4 -0.4754320000000  0.4095020000000 -0.1794930000000 1.0   3.00
Fe     4  0.4754320000000 -0.4095020000000  0.1794930000000 1.0   3.00
END
