TITL LFSO-Li4Fe2SO4-200910-143142-2fc8c1 0.0215 336.342995 -9.15616679E+003 1.41597 2.08573 22 (P3) n - 1
REM
REM Run started: Fri, 11 Sep 2020 01:39:50 +0100 in /lustre/scratch/uccabz1/launch_tmp/launcher_2020-09-10-13-31-40-356549
REM CASTEP 20.1 from code version af48c487+ pr-geom-scf-spinfix Tue Jun 2 15:39:59 2020 +0100
REM Functional Perdew Burke Ernzerhof Relativity Koelling-Harmon Dispersion off
REM Cut-off 340.0000 eV Grid scale 1.7500 Gmax 16.5316 1/A FBSC none
REM MP grid 3 3 2 Offset 0.000 0.000 0.000 No. kpts 5 Spacing 0.07
REM Total runtime: 41829.2 s
REM Overall efficiency: 71.75 %
REM
REM
REM
REM compiler GCC version 4.9.2
REM options -cpp -iprefix /lustre/shared/ucl/apps/gcc/4.9.2/bin/../lib/gcc/x86_64-unknown-linux-gnu/4.9.2/ -mtune=corei7 -march=x86-64 -g -Og
REM COMMAND_LINE
REM seed 1695089603 14424839 1215757129 1374360437 -866272850 1523396513 -380460138 1722346482 -2720095 -1483614678 -726434691 1545012110
REM
REM S 3|1.8|5|6|7|30:31:32(qc=5)
REM O 2|1.5|12|13|15|20:21(qc=5)
REM Li 1|1.3|8|9|10|10U:20(qc=5)
REM Fe 3|2.2|2.0|1.0|8|9|10|40:41:32(qc=5)
REM 
CELL 1.54180    5.80560    5.80560   11.52280   90.00000   90.00000  120.00000
LATT -1
SFAC Li O  S  Fe 
Li     1  0.0056190000000 -0.4343580000000 -0.4306900000000 1.0  -0.02
Li     1  0.4343580000000  0.4399770000000 -0.4306900000000 1.0  -0.02
Li     1 -0.4399770000000 -0.0056190000000 -0.4306900000000 1.0  -0.02
Li     1 -0.2423380000000  0.0092200000000  0.3833030000000 1.0  -0.04
Li     1 -0.0092200000000 -0.2515570000000  0.3833030000000 1.0  -0.04
Li     1  0.2515570000000  0.2423380000000  0.3833030000000 1.0  -0.04
Li     1  0.3333330000000 -0.3333330000000  0.1466880000000 1.0  -0.01
Li     1  0.0000000000000 -0.0000000000000 -0.4314340000000 1.0  -0.01
O      2  0.2481770000000 -0.0723740000000  0.5025130000000 1.0   0.32
O      2  0.0723740000000  0.3205500000000  0.5025130000000 1.0   0.32
O      2 -0.3205500000000 -0.2481770000000  0.5025130000000 1.0   0.32
O      2  0.1656210000000  0.3313110000000 -0.1361040000000 1.0   0.01
O      2 -0.3313110000000 -0.1656900000000 -0.1361040000000 1.0   0.01
O      2  0.1656900000000 -0.1656210000000 -0.1361040000000 1.0   0.01
O      2 -0.3333330000000  0.3333330000000 -0.3227790000000 1.0  -0.00
O      2  0.0000000000000 -0.0000000000000  0.2839080000000 1.0   0.68
S      3 -0.3333330000000  0.3333330000000 -0.1868270000000 1.0  -0.01
S      3 -0.3333330000000  0.3333330000000  0.2009870000000 1.0   0.04
Fe     4  0.4896250000000 -0.0207700000000 -0.0880790000000 1.0   0.04
Fe     4  0.0207700000000 -0.4896050000000 -0.0880790000000 1.0   0.04
Fe     4  0.4896050000000 -0.4896250000000 -0.0880790000000 1.0   0.04
Fe     4 -0.3333330000000  0.3333330000000  0.0266050000000 1.0  -0.25
END
