TITL LFSO-LiFe3S4O-200909-105314-348a08 -0.0166 161.037418 -4.44316204E+003 -0.580073E-01 0.715404E-01 9 (Cm) n - 1
REM
REM Run started: Wed, 09 Sep 2020 14:48:53 +0100 in /lustre/scratch/uccabz1/launch_tmp/launcher_2020-09-09-09-53-12-500225
REM CASTEP 20.1 from code version af48c487+ pr-geom-scf-spinfix Tue Jun 2 15:39:59 2020 +0100
REM Functional Perdew Burke Ernzerhof Relativity Koelling-Harmon Dispersion off
REM Cut-off 340.0000 eV Grid scale 1.7500 Gmax 16.5316 1/A FBSC none
REM MP grid 3 3 3 Offset 0.000 0.000 0.000 No. kpts 10 Spacing 0.07
REM Total runtime: 14235.9 s
REM Overall efficiency: 77.1 %
REM
REM
REM
REM compiler GCC version 4.9.2
REM options -cpp -iprefix /lustre/shared/ucl/apps/gcc/4.9.2/bin/../lib/gcc/x86_64-unknown-linux-gnu/4.9.2/ -mtune=corei7 -march=x86-64 -g -Og
REM COMMAND_LINE
REM seed -1128569474 62097532 -1341732626 -2033795299 1162463556 -882458627 -669680309 738976580 -510556288 1463098905 2108800679 264501643
REM
REM S 3|1.8|5|6|7|30:31:32(qc=5)
REM O 2|1.5|12|13|15|20:21(qc=5)
REM Li 1|1.3|8|9|10|10U:20(qc=5)
REM Fe 3|2.2|2.0|1.0|8|9|10|40:41:32(qc=5)
REM 
CELL 1.54180    5.47629    5.47629    6.35962  110.56986  110.56986   96.42870
LATT -1
SFAC Li O  S  Fe 
Li     1 -0.3258720000000 -0.3258720000000 -0.5000770000000 1.0  -0.00
O      2  0.5724300000000  0.5724300000000  0.1560300000000 1.0  -0.00
S      3  0.3409270000000 -0.0846820000000 -0.1248490000000 1.0  -0.00
S      3 -0.0846820000000  0.3409270000000 -0.1248490000000 1.0  -0.00
S      3  0.2797940000000 -0.0951650000000  0.4018200000000 1.0  -0.00
S      3 -0.0951650000000  0.2797940000000  0.4018200000000 1.0  -0.00
Fe     4 -0.3265360000000  0.2768420000000  0.0643920000000 1.0  -0.02
Fe     4  0.2768420000000 -0.3265360000000  0.0643920000000 1.0  -0.02
Fe     4  0.1330800000000  0.1330800000000 -0.3468050000000 1.0  -0.01
END
