TITL LFSO-Li2Fe4S3O2-200912-041123-9911e8 -0.0916 184.912919 -5.64104564E+003 -14.5913 14.6743 11 (R3) n - 1
REM
REM Run started: Sat, 12 Sep 2020 11:12:00 +0100 in /lustre/scratch/uccabz1/launch_tmp/launcher_2020-09-12-03-11-22-249278
REM CASTEP 20.1 from code version af48c487+ pr-geom-scf-spinfix Tue Jun 2 15:39:59 2020 +0100
REM Functional Perdew Burke Ernzerhof Relativity Koelling-Harmon Dispersion off
REM Cut-off 340.0000 eV Grid scale 1.7500 Gmax 16.5316 1/A FBSC none
REM MP grid 3 3 3 Offset 0.000 0.000 0.000 No. kpts 6 Spacing 0.07
REM Total runtime: 22240.6 s
REM Overall efficiency: 97.0833 %
REM
REM
REM
REM compiler GCC version 4.9.2
REM options -cpp -iprefix /lustre/shared/ucl/apps/gcc/4.9.2/bin/../lib/gcc/x86_64-unknown-linux-gnu/4.9.2/ -mtune=corei7 -march=x86-64 -g -Og
REM COMMAND_LINE
REM seed 2144237653 -1135120772 -1721456071 -875773823 -1263347966 -284653240 748141431 1199706349 338561059 -1550124056 -2090649969 -1144598242
REM
REM S 3|1.8|5|6|7|30:31:32(qc=5)
REM O 2|1.5|12|13|15|20:21(qc=5)
REM Li 1|1.3|8|9|10|10U:20(qc=5)
REM Fe 3|2.2|2.0|1.0|8|9|10|40:41:32(qc=5)
REM 
CELL 1.54180    6.01825    6.01825    6.01825   69.57475   69.57475   69.57475
LATT -1
SFAC Li O  S  Fe 
Li     1  0.0217230000000  0.0217230000000  0.0217230000000 1.0  -0.03
Li     1  0.3833600000000  0.3833600000000  0.3833600000000 1.0  -0.01
O      2 -0.4721170000000 -0.4721170000000 -0.4721170000000 1.0  -0.25
O      2 -0.1234560000000 -0.1234560000000 -0.1234560000000 1.0  -0.28
S      3  0.3729050000000 -0.3057940000000  0.0278260000000 1.0  -0.23
S      3  0.0278260000000  0.3729050000000 -0.3057940000000 1.0  -0.23
S      3 -0.3057940000000  0.0278260000000  0.3729050000000 1.0  -0.23
Fe     4  0.6339220000000 -0.2395880000000  0.2005750000000 1.0  -3.30
Fe     4  0.2005750000000  0.6339220000000 -0.2395880000000 1.0  -3.30
Fe     4 -0.2395880000000  0.2005750000000  0.6339220000000 1.0  -3.30
Fe     4 -0.2788460000000 -0.2788460000000 -0.2788460000000 1.0  -3.42
END
