TITL LFSO-Li2Fe3SO3-200912-164516-20b539 0.0796 124.974669 -4.60337563E+003 -4.11097 6.57539 9 (C222) n - 1
REM
REM Run started: Sat, 12 Sep 2020 18:21:37 +0100 in /lustre/scratch/uccabz1/launch_tmp/launcher_2020-09-12-15-45-14-394254
REM CASTEP 20.1 from code version af48c487+ pr-geom-scf-spinfix Tue Jun 2 15:39:59 2020 +0100
REM Functional Perdew Burke Ernzerhof Relativity Koelling-Harmon Dispersion off
REM Cut-off 340.0000 eV Grid scale 1.7500 Gmax 16.5316 1/A FBSC none
REM MP grid 4 4 2 Offset 0.000 0.000 0.000 No. kpts 6 Spacing 0.07
REM Total runtime: 6694.92 s
REM Overall efficiency: 94.2857 %
REM
REM
REM
REM compiler GCC version 4.9.2
REM options -cpp -iprefix /lustre/shared/ucl/apps/gcc/4.9.2/bin/../lib/gcc/x86_64-unknown-linux-gnu/4.9.2/ -mtune=corei7 -march=x86-64 -g -Og
REM COMMAND_LINE
REM seed 1213579481 -1896515405 -59982990 905397679 1169100616 1234233250 -1348617189 962768044 2053913413 1926446492 -436103656 1590825214
REM
REM S 3|1.8|5|6|7|30:31:32(qc=5)
REM O 2|1.5|12|13|15|20:21(qc=5)
REM Li 1|1.3|8|9|10|10U:20(qc=5)
REM Fe 3|2.2|2.0|1.0|8|9|10|40:41:32(qc=5)
REM 
CELL 1.54180    4.34285    4.34285    7.84706   90.00000   90.00000  122.38861
LATT -1
SFAC Li O  S  Fe 
Li     1  0.0000000000000  0.5000000000000 -0.1031560000000 1.0  -0.04
Li     1  0.5000000000000  0.0000000000000  0.1031560000000 1.0  -0.04
O      2  0.0000000000000  0.5000000000000  0.1769940000000 1.0  -0.08
O      2  0.5000000000000  0.0000000000000 -0.1769940000000 1.0  -0.08
O      2  0.0000000000000  0.0000000000000 -0.0000000000000 1.0   1.08
S      3  0.5000000000000  0.5000000000000  0.5000000000000 1.0  -0.00
Fe     4  0.5000000000000  0.0000000000000  0.6092260000000 1.0  -1.78
Fe     4  0.0000000000000  0.5000000000000 -0.6092260000000 1.0  -1.78
Fe     4  0.0000000000000  0.0000000000000  0.5000000000000 1.0  -1.38
END
