TITL LFSO-LiFe3SO4-200909-010303-008af4 -0.0427 233.624232 -9.69057287E+003 -13.6015 13.9805 18 (R3) n - 1
REM
REM Run started: Wed, 09 Sep 2020 06:17:35 +0100 in /lustre/scratch/uccabz1/launch_tmp/launcher_2020-09-09-00-03-01-358117
REM CASTEP 20.1 from code version af48c487+ pr-geom-scf-spinfix Tue Jun 2 15:39:59 2020 +0100
REM Functional Perdew Burke Ernzerhof Relativity Koelling-Harmon Dispersion off
REM Cut-off 340.0000 eV Grid scale 1.7500 Gmax 16.5316 1/A FBSC none
REM MP grid 4 4 2 Offset 0.000 0.000 0.000 No. kpts 16 Spacing 0.07
REM Total runtime: 22084.9 s
REM Overall efficiency: 88 %
REM
REM
REM
REM compiler GCC version 4.9.2
REM options -cpp -iprefix /lustre/shared/ucl/apps/gcc/4.9.2/bin/../lib/gcc/x86_64-unknown-linux-gnu/4.9.2/ -mtune=corei7 -march=x86-64 -g -Og
REM COMMAND_LINE
REM seed 828770619 -2134462724 1242580034 -69381994 1426892894 873483017 565973860 1342181912 -64032966 -1385299317 -2129875822 701322377
REM
REM S 3|1.8|5|6|7|30:31:32(qc=5)
REM O 2|1.5|12|13|15|20:21(qc=5)
REM Li 1|1.3|8|9|10|10U:20(qc=5)
REM Fe 3|2.2|2.0|1.0|8|9|10|40:41:32(qc=5)
REM 
CELL 1.54180    5.54482    5.54482    9.34007   72.73270   72.73270   60.00000
LATT -1
SFAC Li O  S  Fe 
Li     1 -0.0891320000000 -0.0891320000000  0.2673970000000 1.0  -0.04
Li     1  0.1730220000000  0.1730220000000 -0.5190660000000 1.0  -0.04
O      2  0.3709800000000  0.0976440000000 -0.1292900000000 1.0  -0.11
O      2  0.0976440000000 -0.3393340000000 -0.1292900000000 1.0  -0.11
O      2 -0.3393340000000  0.3709800000000 -0.1292900000000 1.0  -0.11
O      2 -0.2066180000000  0.2817100000000  0.1589620000000 1.0  -0.12
O      2  0.2817100000000 -0.2340540000000  0.1589620000000 1.0  -0.12
O      2 -0.2340540000000 -0.2066180000000  0.1589620000000 1.0  -0.12
O      2  0.1052940000000  0.1052940000000 -0.3158820000000 1.0  -0.05
O      2 -0.2275490000000 -0.2275490000000 -0.3173530000000 1.0  -0.13
S      3  0.4791760000000  0.4791760000000 -0.4375290000000 1.0  -0.36
S      3  0.2626480000000  0.2626480000000  0.2120580000000 1.0  -0.04
Fe     4  0.5054300000000 -0.5225390000000  0.0612470000000 1.0  -1.31
Fe     4 -0.5225390000000 -0.0441380000000  0.0612470000000 1.0  -1.31
Fe     4 -0.0441380000000  0.5054300000000  0.0612470000000 1.0  -1.31
Fe     4  0.0985320000000  0.4209730000000 -0.2470530000000 1.0  -2.77
Fe     4  0.4209730000000 -0.2724510000000 -0.2470530000000 1.0  -2.77
Fe     4 -0.2724510000000  0.0985320000000 -0.2470530000000 1.0  -2.77
END
