TITL LFSO-Li4Fe2SO4-200910-144205-11bd93 0.1238 335.860976 -4.57607899E+003 -0.169523E-03 1.40852 11 (R3) n - 1
REM
REM Run started: Fri, 11 Sep 2020 04:49:55 +0100 in /lustre/scratch/uccabz1/launch_tmp/launcher_2020-09-10-13-42-03-153233
REM CASTEP 20.1 from code version af48c487+ pr-geom-scf-spinfix Tue Jun 2 15:39:59 2020 +0100
REM Functional Perdew Burke Ernzerhof Relativity Koelling-Harmon Dispersion off
REM Cut-off 340.0000 eV Grid scale 1.7500 Gmax 16.5316 1/A FBSC none
REM MP grid 3 3 2 Offset 0.000 0.000 0.000 No. kpts 7 Spacing 0.07
REM Total runtime: 60391.6 s
REM Overall efficiency: 80.0833 %
REM
REM
REM
REM compiler GCC version 4.9.2
REM options -cpp -iprefix /lustre/shared/ucl/apps/gcc/4.9.2/bin/../lib/gcc/x86_64-unknown-linux-gnu/4.9.2/ -mtune=corei7 -march=x86-64 -g -Og
REM COMMAND_LINE
REM seed -755915110 -1262977042 -302065869 -772675343 180338039 -1676165164 183902590 -1880438192 655384054 1732362069 650177527 948804056
REM
REM S 3|1.8|5|6|7|30:31:32(qc=5)
REM O 2|1.5|12|13|15|20:21(qc=5)
REM Li 1|1.3|8|9|10|10U:20(qc=5)
REM Fe 3|2.2|2.0|1.0|8|9|10|40:41:32(qc=5)
REM 
CELL 1.54180    6.11113    6.11113   10.96752   73.82322   73.82322   60.00000
LATT -1
SFAC Li O  S  Fe 
Li     1  0.0583740000000 -0.3803980000000  0.3239670000000 1.0  -0.00
Li     1 -0.0019440000000  0.0583740000000  0.3239670000000 1.0  -0.00
Li     1 -0.3803980000000 -0.0019440000000  0.3239670000000 1.0  -0.00
Li     1  0.5651030000000  0.5651030000000 -0.6953100000000 1.0  -0.00
O      2  0.3849670000000  0.3459340000000  0.3313620000000 1.0   0.00
O      2 -0.0622630000000  0.3849670000000  0.3313620000000 1.0   0.00
O      2  0.3459340000000 -0.0622630000000  0.3313620000000 1.0   0.00
O      2  0.1345710000000  0.1345710000000 -0.4037120000000 1.0  -0.04
S      3 -0.0528470000000 -0.0528470000000  0.1585410000000 1.0   0.02
Fe     4  0.2606570000000  0.2606570000000  0.2180300000000 1.0  -0.06
Fe     4  0.1849690000000  0.1849690000000  0.4450930000000 1.0   0.09
END
