TITL LFSO-Li5FeSO3-200910-062704-81e36a -0.0293 124.768985 -3.47858112E+003 4.99997 5.04152 10 (R3) n - 1
REM
REM Run started: Thu, 10 Sep 2020 06:43:01 +0100 in /lustre/scratch/uccabz1/launch_tmp/launcher_2020-09-10-05-27-02-070867
REM CASTEP 20.1 from code version af48c487+ pr-geom-scf-spinfix Tue Jun 2 15:39:59 2020 +0100
REM Functional Perdew Burke Ernzerhof Relativity Koelling-Harmon Dispersion off
REM Cut-off 340.0000 eV Grid scale 1.7500 Gmax 16.5316 1/A FBSC none
REM MP grid 3 3 3 Offset 0.000 0.000 0.000 No. kpts 6 Spacing 0.07
REM Total runtime: 1006.32 s
REM Overall efficiency: 87.5 %
REM
REM
REM
REM compiler GCC version 4.9.2
REM options -cpp -iprefix /lustre/shared/ucl/apps/gcc/4.9.2/bin/../lib/gcc/x86_64-unknown-linux-gnu/4.9.2/ -mtune=corei7 -march=x86-64 -g -Og
REM COMMAND_LINE
REM seed -650610410 1545589850 37940075 814420148 -2086052447 -1883885525 -2125483145 1426840430 -1773730778 -1204222210 1885245266 -14412532
REM
REM S 3|1.8|5|6|7|30:31:32(qc=5)
REM O 2|1.5|12|13|15|20:21(qc=5)
REM Li 1|1.3|8|9|10|10U:20(qc=5)
REM Fe 3|2.2|2.0|1.0|8|9|10|40:41:32(qc=5)
REM 
CELL 1.54180    5.00188    5.00188    5.00188   87.40980   87.40980   87.40980
LATT -1
SFAC Li O  S  Fe 
Li     1 -0.5626910000000  0.1689320000000 -0.1508390000000 1.0   0.00
Li     1 -0.1508390000000 -0.5626910000000  0.1689320000000 1.0   0.00
Li     1  0.1689320000000 -0.1508390000000 -0.5626910000000 1.0   0.00
Li     1  0.2893140000000  0.2893140000000  0.2893140000000 1.0   0.07
Li     1 -0.4598540000000 -0.4598540000000 -0.4598540000000 1.0   0.01
O      2 -0.0352600000000  0.5537430000000 -0.4897820000000 1.0   0.30
O      2 -0.4897820000000 -0.0352600000000  0.5537430000000 1.0   0.30
O      2  0.5537430000000 -0.4897820000000 -0.0352600000000 1.0   0.30
S      3  0.0223650000000  0.0223650000000  0.0223650000000 1.0   0.26
Fe     4 -0.2244750000000 -0.2244750000000 -0.2244750000000 1.0   3.77
END
