TITL LFSO-Li6FeSO3-200909-234946-6f4af8 0.0188 282.238655 -7.36012246E+003 -7.99648 8.07498 22 (P3) n - 1
REM
REM Run started: Thu, 10 Sep 2020 02:31:27 +0100 in /lustre/scratch/uccabz1/launch_tmp/launcher_2020-09-09-22-49-44-891917
REM CASTEP 20.1 from code version af48c487+ pr-geom-scf-spinfix Tue Jun 2 15:39:59 2020 +0100
REM Functional Perdew Burke Ernzerhof Relativity Koelling-Harmon Dispersion off
REM Cut-off 340.0000 eV Grid scale 1.7500 Gmax 16.5316 1/A FBSC none
REM MP grid 3 3 3 Offset 0.000 0.000 0.000 No. kpts 8 Spacing 0.07
REM Total runtime: 9806.1 s
REM Overall efficiency: 86 %
REM
REM
REM
REM compiler GCC version 4.9.2
REM options -cpp -iprefix /lustre/shared/ucl/apps/gcc/4.9.2/bin/../lib/gcc/x86_64-unknown-linux-gnu/4.9.2/ -mtune=corei7 -march=x86-64 -g -Og
REM COMMAND_LINE
REM seed 1567777978 1500157529 159922115 1135184031 1194178978 -2019020727 -1337948454 1027891174 -903973289 -287396014 -1141893762 396116149
REM
REM S 3|1.8|5|6|7|30:31:32(qc=5)
REM O 2|1.5|12|13|15|20:21(qc=5)
REM Li 1|1.3|8|9|10|10U:20(qc=5)
REM Fe 3|2.2|2.0|1.0|8|9|10|40:41:32(qc=5)
REM 
CELL 1.54180    6.94098    6.94098    6.76464   90.00000   90.00000  120.00000
LATT -1
SFAC Li O  S  Fe 
Li     1  0.4464960000000 -0.0745580000000 -0.5159510000000 1.0   0.03
Li     1  0.0745580000000 -0.4789470000000 -0.5159510000000 1.0   0.03
Li     1  0.4789470000000 -0.4464960000000 -0.5159510000000 1.0   0.03
Li     1 -0.3788730000000 -0.1565660000000 -0.2296210000000 1.0  -0.02
Li     1  0.1565660000000 -0.2223070000000 -0.2296210000000 1.0  -0.02
Li     1  0.2223070000000  0.3788730000000 -0.2296210000000 1.0  -0.02
Li     1  0.2411210000000  0.0952790000000 -0.4037390000000 1.0   0.02
Li     1 -0.0952790000000  0.1458420000000 -0.4037390000000 1.0   0.02
Li     1 -0.1458420000000 -0.2411210000000 -0.4037390000000 1.0   0.02
Li     1 -0.0264020000000 -0.2486480000000  0.2352600000000 1.0   0.00
Li     1  0.2486480000000  0.2222450000000  0.2352600000000 1.0   0.00
Li     1 -0.2222450000000  0.0264020000000  0.2352600000000 1.0   0.00
O      2  0.1840000000000  0.3163010000000  0.4753940000000 1.0  -0.02
O      2 -0.3163010000000 -0.1323010000000  0.4753940000000 1.0  -0.02
O      2  0.1323010000000 -0.1840000000000  0.4753940000000 1.0  -0.02
O      2 -0.4405220000000 -0.4920010000000 -0.2446680000000 1.0  -0.27
O      2  0.4920010000000  0.0514790000000 -0.2446680000000 1.0  -0.27
O      2 -0.0514790000000  0.4405220000000 -0.2446680000000 1.0  -0.27
S      3 -0.3333330000000  0.3333330000000  0.2630960000000 1.0  -0.14
S      3  0.0000000000000 -0.0000000000000 -0.0500720000000 1.0  -0.02
Fe     4 -0.3333330000000  0.3333330000000  0.5959830000000 1.0  -3.41
Fe     4 -0.3333330000000  0.3333330000000 -0.0744890000000 1.0  -3.65
END
