TITL LFSO-Li4Fe3S2O3-200927-173952-053620 0.0077 334.789362 -5.30852622E+003 5.81251 6.14797 12 (P3) n - 1
REM
REM Run started: Mon, 28 Sep 2020 11:47:57 +0100 in /lustre/scratch/uccabz1/launch_tmp/launcher_2020-09-27-16-39-50-441607
REM CASTEP 20.1 from code version af48c487+ pr-geom-scf-spinfix Tue Jun 2 15:39:59 2020 +0100
REM Functional Perdew Burke Ernzerhof Relativity Koelling-Harmon Dispersion off
REM Cut-off 340.0000 eV Grid scale 1.7500 Gmax 16.5316 1/A FBSC none
REM MP grid 3 3 2 Offset 0.000 0.000 0.000 No. kpts 5 Spacing 0.07
REM Total runtime: 18720.1 s
REM Overall efficiency: 80.4615 %
REM
REM
REM
REM compiler GCC version 4.9.2
REM options -cpp -iprefix /lustre/shared/ucl/apps/gcc/4.9.2/bin/../lib/gcc/x86_64-unknown-linux-gnu/4.9.2/ -mtune=corei7 -march=x86-64 -g -Og
REM COMMAND_LINE
REM seed -501612560 990274046 -1239943250 1987044603 -330273197 -1835450609 -918494321 -1544973886 -1742016162 1456761722 571012185 -1348927869
REM
REM S 3|1.8|5|6|7|30:31:32(qc=5)
REM O 2|1.5|12|13|15|20:21(qc=5)
REM Li 1|1.3|8|9|10|10U:20(qc=5)
REM Fe 3|2.2|2.0|1.0|8|9|10|40:41:32(qc=5)
REM 
CELL 1.54180    6.15996    6.15996   10.18790   90.00000   90.00000  120.00000
LATT -1
SFAC Li O  S  Fe 
Li     1 -0.3969970000000  0.0397020000000  0.2104190000000 1.0   0.17
Li     1  0.4366990000000  0.3969970000000  0.2104190000000 1.0   0.17
Li     1 -0.0397020000000 -0.4366990000000  0.2104190000000 1.0   0.17
Li     1  0.3333330000000 -0.3333330000000 -0.4953210000000 1.0  -0.03
O      2  0.0425910000000 -0.4619920000000  0.3789750000000 1.0   0.20
O      2 -0.5045840000000 -0.0425910000000  0.3789750000000 1.0   0.20
O      2  0.4619920000000  0.5045840000000  0.3789750000000 1.0   0.20
S      3 -0.0000000000000  0.0000000000000 -0.4709900000000 1.0  -0.01
S      3 -0.0000000000000  0.0000000000000  0.2040090000000 1.0   0.01
Fe     4  0.1122990000000  0.2807550000000  0.3729660000000 1.0   1.57
Fe     4  0.1684560000000 -0.1122990000000  0.3729660000000 1.0   1.57
Fe     4 -0.2807550000000 -0.1684560000000  0.3729660000000 1.0   1.57
END
