TITL LFSO-Li6FeSO3-200909-230850-c63857 -0.0109 191.550473 -3.67883431E+003 4.00000 4.08587 11 (Cmm2) n - 1
REM
REM Run started: Wed, 09 Sep 2020 23:59:31 +0100 in /lustre/scratch/uccabz1/launch_tmp/launcher_2020-09-09-22-08-47-901700
REM CASTEP 20.1 from code version af48c487+ pr-geom-scf-spinfix Tue Jun 2 15:39:59 2020 +0100
REM Functional Perdew Burke Ernzerhof Relativity Koelling-Harmon Dispersion off
REM Cut-off 340.0000 eV Grid scale 1.7500 Gmax 16.5316 1/A FBSC none
REM MP grid 3 3 3 Offset 0.000 0.000 0.000 No. kpts 8 Spacing 0.07
REM Total runtime: 3168.09 s
REM Overall efficiency: 92.2857 %
REM
REM
REM
REM compiler GCC version 4.9.2
REM options -cpp -iprefix /lustre/shared/ucl/apps/gcc/4.9.2/bin/../lib/gcc/x86_64-unknown-linux-gnu/4.9.2/ -mtune=corei7 -march=x86-64 -g -Og
REM COMMAND_LINE
REM seed -1002077988 -2052639033 1157529292 -253333983 393725358 -1352952014 -1796004080 976334869 -318615147 573695342 -1878782279 1286918682
REM
REM S 3|1.8|5|6|7|30:31:32(qc=5)
REM O 2|1.5|12|13|15|20:21(qc=5)
REM Li 1|1.3|8|9|10|10U:20(qc=5)
REM Fe 3|2.2|2.0|1.0|8|9|10|40:41:32(qc=5)
REM 
CELL 1.54180    5.61291    5.61291    6.68015   90.00000   90.00000  114.47153
LATT -1
SFAC Li O  S  Fe 
Li     1 -0.4617120000000 -0.1875940000000 -0.1267800000000 1.0  -0.02
Li     1  0.4617120000000  0.1875940000000 -0.1267800000000 1.0  -0.02
Li     1  0.1875940000000  0.4617120000000 -0.1267800000000 1.0  -0.02
Li     1 -0.1875940000000 -0.4617120000000 -0.1267800000000 1.0  -0.02
Li     1 -0.3811450000000  0.3811450000000 -0.5175350000000 1.0  -0.01
Li     1  0.3811450000000 -0.3811450000000 -0.5175350000000 1.0  -0.01
O      2  0.1769300000000 -0.1769300000000 -0.1204340000000 1.0   0.22
O      2 -0.1769300000000  0.1769300000000 -0.1204340000000 1.0   0.22
O      2 -0.5000000000000 -0.5000000000000 -0.3033960000000 1.0   0.01
S      3 -0.5000000000000 -0.5000000000000  0.1699340000000 1.0   0.10
Fe     4  0.0000000000000  0.0000000000000 -0.0034990000000 1.0   3.56
END
