TITL LFSO-LiFeSO-200909-051457-bf5c7b 0.0355 51.278783 -1.80397414E+003 3.88819 3.91048 4 (R3m) n - 1
REM
REM Run started: Wed, 09 Sep 2020 05:21:12 +0100 in /lustre/scratch/uccabz1/launch_tmp/launcher_2020-09-09-04-14-56-095130
REM CASTEP 20.1 from code version af48c487+ pr-geom-scf-spinfix Tue Jun 2 15:39:59 2020 +0100
REM Functional Perdew Burke Ernzerhof Relativity Koelling-Harmon Dispersion off
REM Cut-off 340.0000 eV Grid scale 1.7500 Gmax 16.5316 1/A FBSC none
REM MP grid 4 4 4 Offset 0.000 0.000 0.000 No. kpts 10 Spacing 0.07
REM Total runtime: 414.04 s
REM Overall efficiency: 74.2 %
REM
REM
REM
REM compiler GCC version 4.9.2
REM options -cpp -iprefix /lustre/shared/ucl/apps/gcc/4.9.2/bin/../lib/gcc/x86_64-unknown-linux-gnu/4.9.2/ -mtune=corei7 -march=x86-64 -g -Og
REM COMMAND_LINE
REM seed -2033610411 688774571 396857900 -1393539082 606753980 -1763993783 -300519647 1240200121 828281508 -1478265703 -74320008 885457151
REM
REM S 3|1.8|5|6|7|30:31:32(qc=5)
REM O 2|1.5|12|13|15|20:21(qc=5)
REM Li 1|1.3|8|9|10|10U:20(qc=5)
REM Fe 3|2.2|2.0|1.0|8|9|10|40:41:32(qc=5)
REM 
CELL 1.54180    3.85011    3.85011    3.85011   73.67078   73.67078   73.67078
LATT -1
SFAC Li O  S  Fe 
Li     1 -0.4160200000000 -0.4160200000000 -0.4160200000000 1.0  -0.08
O      2 -0.1914120000000 -0.1914120000000 -0.1914120000000 1.0   0.51
S      3  0.2998610000000  0.2998610000000  0.2998610000000 1.0   0.13
Fe     4  0.0177750000000  0.0177750000000  0.0177750000000 1.0   3.32
END
