TITL LFSO-LiFe3S4O-200909-070611-0df473 0.0575 320.792257 -8.88671617E+003 -9.19390 17.9336 18 (P21/c) n - 1
REM
REM Run started: Wed, 09 Sep 2020 18:03:11 +0100 in /lustre/scratch/uccabz1/launch_tmp/launcher_2020-09-09-06-06-09-887960
REM CASTEP 20.1 from code version af48c487+ pr-geom-scf-spinfix Tue Jun 2 15:39:59 2020 +0100
REM Functional Perdew Burke Ernzerhof Relativity Koelling-Harmon Dispersion off
REM Cut-off 340.0000 eV Grid scale 1.7500 Gmax 16.5316 1/A FBSC none
REM MP grid 3 2 3 Offset 0.000 0.000 0.000 No. kpts 6 Spacing 0.07
REM Total runtime: 39619.3 s
REM Overall efficiency: 93.1111 %
REM
REM
REM
REM compiler GCC version 4.9.2
REM options -cpp -iprefix /lustre/shared/ucl/apps/gcc/4.9.2/bin/../lib/gcc/x86_64-unknown-linux-gnu/4.9.2/ -mtune=corei7 -march=x86-64 -g -Og
REM COMMAND_LINE
REM seed 440823337 -1727363322 1054764549 -1131721658 -1055041882 -1406622541 -1411367983 792922245 -25836500 892319249 -1917872800 -1418065193
REM
REM S 3|1.8|5|6|7|30:31:32(qc=5)
REM O 2|1.5|12|13|15|20:21(qc=5)
REM Li 1|1.3|8|9|10|10U:20(qc=5)
REM Fe 3|2.2|2.0|1.0|8|9|10|40:41:32(qc=5)
REM 
CELL 1.54180    6.47732   10.78373    5.74608   90.00000   90.00000  126.94051
LATT -1
SFAC Li O  S  Fe 
Li     1  0.0000000000000  0.0000000000000 -0.0000000000000 1.0  -0.07
Li     1  0.5000000000000  0.0000000000000 -0.5000000000000 1.0  -0.07
O      2  0.5000000000000  0.5000000000000 -0.0000000000000 1.0  -0.35
O      2  0.0000000000000  0.5000000000000 -0.5000000000000 1.0  -0.35
S      3  0.2123950000000  0.2121010000000 -0.2888970000000 1.0  -0.12
S      3  0.2876050000000 -0.2121010000000  0.2111030000000 1.0  -0.12
S      3 -0.2123950000000 -0.2121010000000  0.2888970000000 1.0  -0.12
S      3 -0.2876050000000  0.2121010000000 -0.2111030000000 1.0  -0.12
S      3  0.3893810000000  0.1459190000000  0.2528760000000 1.0  -0.11
S      3  0.1106190000000 -0.1459190000000 -0.2471240000000 1.0  -0.11
S      3 -0.3893810000000 -0.1459190000000 -0.2528760000000 1.0  -0.11
S      3 -0.1106190000000  0.1459190000000  0.2471240000000 1.0  -0.11
Fe     4  0.2880830000000  0.2980080000000  0.0578220000000 1.0  -2.91
Fe     4  0.2119170000000 -0.2980080000000 -0.4421780000000 1.0  -2.91
Fe     4 -0.2880830000000 -0.2980080000000 -0.0578220000000 1.0  -2.91
Fe     4 -0.2119170000000  0.2980080000000  0.4421780000000 1.0  -2.91
Fe     4  0.5000000000000  0.0000000000000 -0.0000000000000 1.0   2.10
Fe     4  0.0000000000000  0.0000000000000 -0.5000000000000 1.0   2.10
END
