TITL LFSO-Li3FeS2O-200911-195649-1f3fdf -0.0275 414.031605 -7.52388472E+003 12.5270 12.6571 21 (F222) n - 1
REM
REM Run started: Sat, 12 Sep 2020 10:24:02 +0100 in /lustre/scratch/uccabz1/launch_tmp/launcher_2020-09-11-18-56-48-096094
REM CASTEP 20.1 from code version af48c487+ pr-geom-scf-spinfix Tue Jun 2 15:39:59 2020 +0100
REM Functional Perdew Burke Ernzerhof Relativity Koelling-Harmon Dispersion off
REM Cut-off 340.0000 eV Grid scale 1.7500 Gmax 16.5316 1/A FBSC none
REM MP grid 3 3 3 Offset 0.000 0.000 0.000 No. kpts 8 Spacing 0.07
REM Total runtime: 60398.9 s
REM Overall efficiency: 98.6667 %
REM
REM
REM
REM compiler GCC version 4.9.2
REM options -cpp -iprefix /lustre/shared/ucl/apps/gcc/4.9.2/bin/../lib/gcc/x86_64-unknown-linux-gnu/4.9.2/ -mtune=corei7 -march=x86-64 -g -Og
REM COMMAND_LINE
REM seed -957928133 1490113605 1378440337 -1660039462 1640600794 -247694308 -1629958278 -1006039905 20382252 146190920 1814087184 -1897413437
REM
REM S 3|1.8|5|6|7|30:31:32(qc=5)
REM O 2|1.5|12|13|15|20:21(qc=5)
REM Li 1|1.3|8|9|10|10U:20(qc=5)
REM Fe 3|2.2|2.0|1.0|8|9|10|40:41:32(qc=5)
REM 
CELL 1.54180   10.56526   10.56526   11.69625  144.00779  144.00779   37.68176
LATT -1
SFAC Li O  S  Fe 
Li     1 -0.2997800000000 -0.6177680000000  0.1741950000000 1.0  -0.05
Li     1 -0.5260250000000 -0.2080360000000  0.1741950000000 1.0  -0.05
Li     1  0.2080360000000  0.5260250000000 -0.1741950000000 1.0  -0.05
Li     1  0.6177680000000  0.2997800000000 -0.1741950000000 1.0  -0.05
Li     1 -0.2447490000000 -0.4122130000000 -0.3894170000000 1.0   0.03
Li     1 -0.1446680000000  0.0227960000000 -0.3894170000000 1.0   0.03
Li     1 -0.0227960000000  0.1446680000000  0.3894170000000 1.0   0.03
Li     1  0.4122130000000  0.2447490000000  0.3894170000000 1.0   0.03
Li     1  0.2500000000000 -0.2500000000000 -0.5000000000000 1.0   0.01
O      2 -0.4376920000000  0.0623080000000 -0.5000000000000 1.0   0.19
O      2 -0.0623080000000  0.4376920000000  0.5000000000000 1.0   0.19
O      2  0.5000000000000  0.5000000000000 -0.0000000000000 1.0   0.22
S      3  0.2005730000000 -0.1413310000000  0.2131100000000 1.0   0.39
S      3  0.0125370000000  0.3544420000000  0.2131100000000 1.0   0.39
S      3 -0.3544420000000 -0.0125370000000 -0.2131100000000 1.0   0.39
S      3  0.1413310000000 -0.2005730000000 -0.2131100000000 1.0   0.39
S      3 -0.4052320000000  0.4052320000000 -0.5000000000000 1.0   0.02
S      3 -0.0947680000000  0.0947680000000  0.5000000000000 1.0   0.02
Fe     4 -0.2103300000000 -0.2103300000000 -0.4206610000000 1.0   3.58
Fe     4  0.2103300000000  0.2103300000000  0.4206610000000 1.0   3.58
Fe     4 -0.0000000000000  0.0000000000000 -0.0000000000000 1.0   3.24
END
