TITL LFSO-Li4Fe3S3O2-200927-100815-fd835f 0.0497 202.187082 -5.17143520E+003 8.37202 8.85892 12 (Pmm2) n - 1
REM
REM Run started: Sun, 27 Sep 2020 11:02:04 +0100 in /lustre/scratch/uccabz1/launch_tmp/launcher_2020-09-27-09-08-13-464493
REM CASTEP 20.1 from code version af48c487+ pr-geom-scf-spinfix Tue Jun 2 15:39:59 2020 +0100
REM Functional Perdew Burke Ernzerhof Relativity Koelling-Harmon Dispersion off
REM Cut-off 340.0000 eV Grid scale 1.7500 Gmax 16.5316 1/A FBSC none
REM MP grid 3 3 2 Offset 0.000 0.000 0.000 No. kpts 4 Spacing 0.07
REM Total runtime: 3468.34 s
REM Overall efficiency: 95.1667 %
REM
REM
REM
REM compiler GCC version 4.9.2
REM options -cpp -iprefix /lustre/shared/ucl/apps/gcc/4.9.2/bin/../lib/gcc/x86_64-unknown-linux-gnu/4.9.2/ -mtune=corei7 -march=x86-64 -g -Og
REM COMMAND_LINE
REM seed -497914821 100374909 2015810082 258647536 1883858812 1452485872 -457265491 -1350952648 583750860 -1160944359 -1011679939 1437839745
REM
REM S 3|1.8|5|6|7|30:31:32(qc=5)
REM O 2|1.5|12|13|15|20:21(qc=5)
REM Li 1|1.3|8|9|10|10U:20(qc=5)
REM Fe 3|2.2|2.0|1.0|8|9|10|40:41:32(qc=5)
REM 
CELL 1.54180    5.11698    5.40323    7.31283   90.00000   90.00000   90.00000
LATT -1
SFAC Li O  S  Fe 
Li     1  0.1539740000000 -0.2092130000000  0.2510390000000 1.0  -0.04
Li     1  0.1539740000000  0.2092130000000 -0.2510390000000 1.0  -0.04
Li     1  0.1539740000000  0.2092130000000  0.2510390000000 1.0  -0.04
Li     1  0.1539740000000 -0.2092130000000 -0.2510390000000 1.0  -0.04
O      2  0.0304290000000 -0.2809650000000 -0.0000000000000 1.0   0.12
O      2  0.0304290000000  0.2809650000000  0.0000000000000 1.0   0.12
S      3  0.5624800000000  0.0000000000000 -0.1471450000000 1.0   0.04
S      3  0.5624800000000  0.0000000000000  0.1471450000000 1.0   0.04
S      3 -0.0097540000000  0.0000000000000  0.5000000000000 1.0   0.03
Fe     4 -0.2930590000000 -0.5000000000000 -0.1520220000000 1.0   3.29
Fe     4 -0.2930590000000 -0.5000000000000  0.1520220000000 1.0   3.29
Fe     4  0.2894290000000  0.5000000000000 -0.0000000000000 1.0   1.57
END
