TITL LFSO-Li2FeSO-200912-072815-c1797e 0.0123 125.252985 -4.01120669E+003 7.98083 8.05300 10 (Ima2) n - 1
REM
REM Run started: Sat, 12 Sep 2020 08:26:09 +0100 in /lustre/scratch/uccabz1/launch_tmp/launcher_2020-09-12-06-28-12-438525
REM CASTEP 20.1 from code version af48c487+ pr-geom-scf-spinfix Tue Jun 2 15:39:59 2020 +0100
REM Functional Perdew Burke Ernzerhof Relativity Koelling-Harmon Dispersion off
REM Cut-off 340.0000 eV Grid scale 1.7500 Gmax 16.5316 1/A FBSC none
REM MP grid 4 4 4 Offset 0.000 0.000 0.000 No. kpts 20 Spacing 0.07
REM Total runtime: 4732.25 s
REM Overall efficiency: 96.1667 %
REM
REM
REM
REM compiler GCC version 4.9.2
REM options -cpp -iprefix /lustre/shared/ucl/apps/gcc/4.9.2/bin/../lib/gcc/x86_64-unknown-linux-gnu/4.9.2/ -mtune=corei7 -march=x86-64 -g -Og
REM COMMAND_LINE
REM seed 2063573361 868069398 965766833 -2094496870 -675124391 1909674541 -2128238759 -1031319244 -23893654 668705232 183276214 -707803138
REM
REM S 3|1.8|5|6|7|30:31:32(qc=5)
REM O 2|1.5|12|13|15|20:21(qc=5)
REM Li 1|1.3|8|9|10|10U:20(qc=5)
REM Fe 3|2.2|2.0|1.0|8|9|10|40:41:32(qc=5)
REM 
CELL 1.54180    5.74400    5.72273    5.56371  120.95003  121.07781   90.00000
LATT -1
SFAC Li O  S  Fe 
Li     1 -0.3054140000000 -0.2766700000000 -0.0876040000000 1.0  -0.04
Li     1 -0.2178100000000  0.2766700000000  0.0876040000000 1.0  -0.04
Li     1  0.1945860000000 -0.3109340000000 -0.0876040000000 1.0  -0.04
Li     1  0.2821900000000  0.3109340000000  0.0876040000000 1.0  -0.04
O      2 -0.0139520000000 -0.0000000000000  0.0000000000000 1.0   0.24
O      2  0.4860480000000  0.5000000000000  0.0000000000000 1.0   0.24
S      3 -0.2907820000000  0.2407410000000 -0.5000000000000 1.0   0.25
S      3  0.2092180000000 -0.2407410000000 -0.5000000000000 1.0   0.25
Fe     4  0.2794410000000  0.1678800000000  0.5000000000000 1.0   3.57
Fe     4 -0.2205590000000 -0.1678800000000  0.5000000000000 1.0   3.57
END
