TITL LFSO-Li2Fe3S2O2-200921-031540-01229f -0.0077 289.442598 -8.94750121E+003 13.3780 14.0618 18 (P2) n - 1
REM
REM Run started: Mon, 21 Sep 2020 18:02:32 +0100 in /lustre/scratch/uccabz1/launch_tmp/launcher_2020-09-21-02-15-38-666141
REM CASTEP 20.1 from code version af48c487+ pr-geom-scf-spinfix Tue Jun 2 15:39:59 2020 +0100
REM Functional Perdew Burke Ernzerhof Relativity Koelling-Harmon Dispersion off
REM Cut-off 340.0000 eV Grid scale 1.7500 Gmax 16.5316 1/A FBSC none
REM MP grid 4 3 2 Offset 0.000 0.000 0.000 No. kpts 6 Spacing 0.07
REM Total runtime: 53415.3 s
REM Overall efficiency: 97.7273 %
REM
REM
REM
REM compiler GCC version 4.9.2
REM options -cpp -iprefix /lustre/shared/ucl/apps/gcc/4.9.2/bin/../lib/gcc/x86_64-unknown-linux-gnu/4.9.2/ -mtune=corei7 -march=x86-64 -g -Og
REM COMMAND_LINE
REM seed 912746488 -503294677 1052966744 -442483762 -1417790362 -887438904 1783282585 -1825653941 -757193639 -869412039 -947081470 566235056
REM
REM S 3|1.8|5|6|7|30:31:32(qc=5)
REM O 2|1.5|12|13|15|20:21(qc=5)
REM Li 1|1.3|8|9|10|10U:20(qc=5)
REM Fe 3|2.2|2.0|1.0|8|9|10|40:41:32(qc=5)
REM 
CELL 1.54180    4.96650    6.96703    9.05582   90.00000   90.00000   67.47489
LATT -1
SFAC Li O  S  Fe 
Li     1 -0.3851800000000 -0.2481390000000  0.1607960000000 1.0  -0.04
Li     1  0.3851800000000  0.2481390000000  0.1607960000000 1.0  -0.04
Li     1  0.1775630000000 -0.3566130000000 -0.4475480000000 1.0  -0.01
Li     1 -0.1775630000000  0.3566130000000 -0.4475480000000 1.0  -0.01
O      2 -0.0808390000000  0.3098150000000 -0.2419920000000 1.0   0.12
O      2  0.0808390000000 -0.3098150000000 -0.2419920000000 1.0   0.12
O      2  0.5573240000000 -0.2327860000000 -0.0381630000000 1.0   0.18
O      2 -0.5573240000000  0.2327860000000 -0.0381630000000 1.0   0.18
S      3  0.1303310000000 -0.2394850000000  0.2934290000000 1.0   0.05
S      3 -0.1303310000000  0.2394850000000  0.2934290000000 1.0   0.05
S      3 -0.3819890000000 -0.2358270000000 -0.4617860000000 1.0   0.02
S      3  0.3819890000000  0.2358270000000 -0.4617860000000 1.0   0.02
Fe     4 -0.3145310000000 -0.1726660000000 -0.2192060000000 1.0   2.37
Fe     4  0.3145310000000  0.1726660000000 -0.2192060000000 1.0   2.37
Fe     4  0.2632850000000  0.0033860000000  0.3999810000000 1.0   1.63
Fe     4 -0.2632850000000 -0.0033860000000  0.3999810000000 1.0   1.63
Fe     4 -0.2220230000000  0.1599810000000 -0.1365270000000 1.0   2.37
Fe     4  0.2220230000000 -0.1599810000000 -0.1365270000000 1.0   2.37
END
