TITL LFSO-Li2Fe3SO3-200912-132657-d950f1 -0.0186 236.677832 -9.21292764E+003 0.265283 2.19639 18 (Cm) n - 1
REM
REM Run started: Sat, 12 Sep 2020 20:56:26 +0100 in /lustre/scratch/uccabz1/launch_tmp/launcher_2020-09-12-12-26-54-787466
REM CASTEP 20.1 from code version af48c487+ pr-geom-scf-spinfix Tue Jun 2 15:39:59 2020 +0100
REM Functional Perdew Burke Ernzerhof Relativity Koelling-Harmon Dispersion off
REM Cut-off 340.0000 eV Grid scale 1.7500 Gmax 16.5316 1/A FBSC none
REM MP grid 4 4 2 Offset 0.000 0.000 0.000 No. kpts 10 Spacing 0.07
REM Total runtime: 28242.4 s
REM Overall efficiency: 74.2857 %
REM
REM
REM
REM compiler GCC version 4.9.2
REM options -cpp -iprefix /lustre/shared/ucl/apps/gcc/4.9.2/bin/../lib/gcc/x86_64-unknown-linux-gnu/4.9.2/ -mtune=corei7 -march=x86-64 -g -Og
REM COMMAND_LINE
REM seed -418105237 -1398445024 570070097 966418250 1953404730 850109605 853654363 1167376138 -1402721370 877908458 1165913490 767820517
REM
REM S 3|1.8|5|6|7|30:31:32(qc=5)
REM O 2|1.5|12|13|15|20:21(qc=5)
REM Li 1|1.3|8|9|10|10U:20(qc=5)
REM Fe 3|2.2|2.0|1.0|8|9|10|40:41:32(qc=5)
REM 
CELL 1.54180    4.76024    4.76024   10.48637   88.77652   88.77652   85.17290
LATT -1
SFAC Li O  S  Fe 
Li     1  1.0323840000000 -0.4431240000000 -0.2393900000000 1.0  -0.01
Li     1  0.5568760000000  0.0323840000000 -0.2393900000000 1.0  -0.01
Li     1 -0.9604540000000  0.5512910000000  0.3914870000000 1.0   0.01
Li     1 -0.4487090000000  0.0395460000000  0.3914870000000 1.0   0.01
O      2  0.0411960000000 -0.4310570000000  0.1906460000000 1.0   0.00
O      2 -0.4310570000000  0.0411960000000  0.1906460000000 1.0   0.00
O      2  1.0376590000000 -0.4618590000000 -0.4139750000000 1.0  -0.01
O      2  0.5381410000000  0.0376590000000 -0.4139750000000 1.0  -0.01
O      2  0.2950130000000 -0.2032210000000  0.3804450000000 1.0  -0.01
O      2 -0.2032210000000  0.2950130000000  0.3804450000000 1.0  -0.01
S      3  0.2790100000000 -0.2166100000000 -0.0805130000000 1.0   0.02
S      3 -0.2166100000000  0.2790100000000 -0.0805130000000 1.0   0.02
Fe     4  0.2081180000000 -0.1288630000000 -0.4493840000000 1.0   0.22
Fe     4 -0.1288630000000  0.2081180000000 -0.4493840000000 1.0   0.22
Fe     4 -0.2581890000000  0.3595380000000  0.2082330000000 1.0   0.08
Fe     4  0.3595380000000 -0.2581890000000  0.2082330000000 1.0   0.08
Fe     4 -0.5610860000000  0.1096780000000  0.0306670000000 1.0  -0.16
Fe     4 -0.8903220000000  0.4389140000000  0.0306670000000 1.0  -0.16
END
