TITL LFSO-Li3Fe3SO5-201002-060700-153919 0.0586 169.217229 -5.68260929E+003 8.96967 9.19827 12 (P1) n - 1
REM
REM Run started: Fri, 02 Oct 2020 08:17:45 +0100 in /scratch/scratch/mmm0366/launch_tmp/launcher_2020-10-02-05-06-58-550610
REM CASTEP 19.11| from code version Version unavailable
REM Functional Perdew Burke Ernzerhof Relativity Koelling-Harmon Dispersion off
REM Cut-off 340.0000 eV Grid scale 1.7500 Gmax 16.5316 1/A FBSC none
REM MP grid 5 3 3 Offset 0.000 0.000 0.000 No. kpts 16 Spacing 0.07
REM Total runtime: 8748.13 s
REM Overall efficiency: 95.125 %
REM
REM
REM
REM compiler GCC version 4.9.2
REM options -cpp -iprefix /scratch/UCL/applications/gcc/4.9.2/bin/../lib/gcc/x86_64-unknown-linux-gnu/4.9.2/ -mtune=corei7 -march=x86-64 -g -O2
REM COMMAND_LINE
REM seed 1353969060 1899353482 1175946189 2077492275 -646576261 1453519273 -967621888 1056475196 -858519633 -2092770960 -1636499074 -2046755563
REM
REM S 3|1.8|5|6|7|30:31:32(qc=5)
REM O 2|1.5|12|13|15|20:21(qc=5)
REM Li 1|1.3|8|9|10|10U:20(qc=5)
REM Fe 3|2.2|2.0|1.0|8|9|10|40:41:32(qc=5)
REM 
CELL 1.54180    3.48493    7.08753    7.08753  101.35995   83.92321   83.92321
LATT -1
SFAC Li O  S  Fe 
Li     1 -0.5760600000000 -0.1924850000000 -0.5125130000000 1.0  -0.03
Li     1 -0.5760600000000 -0.5125130000000 -0.1924850000000 1.0  -0.03
Li     1  0.0220200000000  0.5117600000000  0.5117600000000 1.0   0.00
O      2 -0.0421020000000  0.3710010000000 -0.2990930000000 1.0   0.34
O      2 -0.0421020000000 -0.2990930000000  0.3710010000000 1.0   0.34
O      2  0.4096100000000  0.0140210000000  0.3195490000000 1.0   0.24
O      2  0.4096100000000  0.3195490000000  0.0140210000000 1.0   0.24
O      2  0.3108080000000 -0.2569920000000 -0.2569920000000 1.0   0.02
S      3  0.0537230000000 -0.0899420000000 -0.0899420000000 1.0   0.03
Fe     4 -0.0244300000000 -0.1150720000000  0.2314110000000 1.0   3.26
Fe     4 -0.0244300000000  0.2314110000000 -0.1150720000000 1.0   3.26
Fe     4 -0.6099930000000  0.0920040000000  0.0920040000000 1.0   1.30
END
