TITL LFSO-Li6FeSO3-200909-220409-ec3fad 0.6023 303.814166 -7.36209362E+003 8.00000 8.21751 22 (P21) n - 1
REM
REM Run started: Thu, 10 Sep 2020 05:07:33 +0100 in /lustre/scratch/uccabz1/launch_tmp/launcher_2020-09-09-21-04-07-711536
REM CASTEP 20.1 from code version af48c487+ pr-geom-scf-spinfix Tue Jun 2 15:39:59 2020 +0100
REM Functional Perdew Burke Ernzerhof Relativity Koelling-Harmon Dispersion off
REM Cut-off 340.0000 eV Grid scale 1.7500 Gmax 16.5316 1/A FBSC none
REM MP grid 4 4 1 Offset 0.000 0.000 0.000 No. kpts 8 Spacing 0.07
REM Total runtime: 28262.8 s
REM Overall efficiency: 97.5 %
REM
REM
REM
REM compiler GCC version 4.9.2
REM options -cpp -iprefix /lustre/shared/ucl/apps/gcc/4.9.2/bin/../lib/gcc/x86_64-unknown-linux-gnu/4.9.2/ -mtune=corei7 -march=x86-64 -g -Og
REM COMMAND_LINE
REM seed -1891937444 -1625003454 1254936965 1020934315 -975294990 1179606000 -1123053299 -1739086507 925467750 1693303040 1725657055 -718362950
REM
REM S 3|1.8|5|6|7|30:31:32(qc=5)
REM O 2|1.5|12|13|15|20:21(qc=5)
REM Li 1|1.3|8|9|10|10U:20(qc=5)
REM Fe 3|2.2|2.0|1.0|8|9|10|40:41:32(qc=5)
REM 
CELL 1.54180    3.36388    4.71873   19.14283   90.00000   90.00000   89.01732
LATT -1
SFAC Li O  S  Fe 
Li     1  0.4169960000000  0.1997410000000 -0.4565010000000 1.0  -0.04
Li     1 -0.4169960000000 -0.1997410000000  0.0434990000000 1.0  -0.04
Li     1 -0.0303200000000  0.4151520000000  0.4395660000000 1.0  -0.02
Li     1  0.0303200000000 -0.4151520000000 -0.0604340000000 1.0  -0.02
Li     1 -0.0237850000000  0.0989640000000  0.1570200000000 1.0   0.01
Li     1  0.0237850000000 -0.0989640000000 -0.3429800000000 1.0   0.01
Li     1  0.5347080000000  0.3265820000000 -0.3354540000000 1.0  -0.01
Li     1 -0.5347080000000 -0.3265820000000  0.1645460000000 1.0  -0.01
Li     1 -0.0251070000000  0.1000380000000  0.2968610000000 1.0  -0.02
Li     1  0.0251070000000 -0.1000380000000 -0.2031390000000 1.0  -0.02
Li     1  0.8330490000000 -0.3301960000000 -0.4529710000000 1.0  -0.01
Li     1 -0.8330490000000  0.3301960000000  0.0470290000000 1.0  -0.01
O      2  0.0800880000000 -0.1974270000000  0.0887760000000 1.0   0.01
O      2 -0.0800880000000  0.1974270000000 -0.4112240000000 1.0   0.01
O      2 -0.0340810000000  0.0375530000000  0.3918200000000 1.0   0.27
O      2  0.0340810000000 -0.0375530000000 -0.1081800000000 1.0   0.27
O      2  0.4399710000000  0.5764940000000  0.4793330000000 1.0   0.21
O      2 -0.4399710000000 -0.5764940000000 -0.0206670000000 1.0   0.21
S      3 -0.5263810000000  0.2258030000000  0.2242100000000 1.0   0.01
S      3  0.5263810000000 -0.2258030000000 -0.2757900000000 1.0   0.01
Fe     4  0.5286950000000  0.1352000000000 -0.0864840000000 1.0   3.59
Fe     4 -0.5286950000000 -0.1352000000000  0.4135160000000 1.0   3.59
END
