TITL LFSO-Li5FeS3O-200910-091057-346032 -0.1548 731.171275 -6.42455276E+003 7.63405 8.01728 20 (Pmm2) n - 1
REM
REM Run started: Thu, 10 Sep 2020 17:13:13 +0100 in /lustre/scratch/uccabz1/launch_tmp/launcher_2020-09-10-08-10-56-265223
REM CASTEP 20.1 from code version af48c487+ pr-geom-scf-spinfix Tue Jun 2 15:39:59 2020 +0100
REM Functional Perdew Burke Ernzerhof Relativity Koelling-Harmon Dispersion off
REM Cut-off 340.0000 eV Grid scale 1.7500 Gmax 16.5316 1/A FBSC none
REM MP grid 3 2 3 Offset 0.000 0.000 0.000 No. kpts 4 Spacing 0.07
REM Total runtime: 38273.9 s
REM Overall efficiency: 91 %
REM
REM
REM
REM compiler GCC version 4.9.2
REM options -cpp -iprefix /lustre/shared/ucl/apps/gcc/4.9.2/bin/../lib/gcc/x86_64-unknown-linux-gnu/4.9.2/ -mtune=corei7 -march=x86-64 -g -Og
REM COMMAND_LINE
REM seed 1086994743 -748971129 1480421190 1536858515 -1585699684 649901381 670512299 121568113 1378021825 1444429237 -1294800365 866242747
REM
REM S 3|1.8|5|6|7|30:31:32(qc=5)
REM O 2|1.5|12|13|15|20:21(qc=5)
REM Li 1|1.3|8|9|10|10U:20(qc=5)
REM Fe 3|2.2|2.0|1.0|8|9|10|40:41:32(qc=5)
REM 
CELL 1.54180    6.87093   16.93866    6.28239   90.00000   90.00000   90.00000
LATT -1
SFAC Li O  S  Fe 
Li     1 -0.2704020000000  0.2777630000000 -0.0162420000000 1.0  -0.02
Li     1  0.2704020000000 -0.2777630000000 -0.0162420000000 1.0  -0.02
Li     1  0.2704020000000  0.2777630000000 -0.0162420000000 1.0  -0.02
Li     1 -0.2704020000000 -0.2777630000000 -0.0162420000000 1.0  -0.02
Li     1 -0.2837690000000 -0.1808300000000 -0.3481950000000 1.0   0.03
Li     1  0.2837690000000  0.1808300000000 -0.3481950000000 1.0   0.03
Li     1  0.2837690000000 -0.1808300000000 -0.3481950000000 1.0   0.03
Li     1 -0.2837690000000  0.1808300000000 -0.3481950000000 1.0   0.03
Li     1  0.0000000000000  0.1386470000000  0.0636020000000 1.0   0.01
Li     1  0.0000000000000 -0.1386470000000  0.0636020000000 1.0   0.01
O      2  0.5000000000000  0.2053910000000 -0.1634520000000 1.0   0.22
O      2  0.5000000000000 -0.2053910000000 -0.1634520000000 1.0   0.22
S      3 -0.2593370000000  0.1565060000000  0.2843200000000 1.0   0.17
S      3  0.2593370000000 -0.1565060000000  0.2843200000000 1.0   0.17
S      3  0.2593370000000  0.1565060000000  0.2843200000000 1.0   0.17
S      3 -0.2593370000000 -0.1565060000000  0.2843200000000 1.0   0.17
S      3  0.0000000000000 -0.2457450000000 -0.2081290000000 1.0   0.00
S      3  0.0000000000000  0.2457450000000 -0.2081290000000 1.0   0.00
Fe     4  0.5000000000000  0.1401740000000  0.0720480000000 1.0   3.21
Fe     4 -0.5000000000000 -0.1401740000000  0.0720480000000 1.0   3.21
END
