TITL LFSO-Li4Fe2S3O2-200911-071329-c747f3 0.0168 868.903327 -8.62564015E+003 13.9420 14.7567 22 (Pm) n - 1
REM
REM Run started: Sat, 12 Sep 2020 06:42:02 +0100 in /lustre/scratch/uccabz1/launch_tmp/launcher_2020-09-11-06-13-26-726664
REM CASTEP 20.1 from code version af48c487+ pr-geom-scf-spinfix Tue Jun 2 15:39:59 2020 +0100
REM Functional Perdew Burke Ernzerhof Relativity Koelling-Harmon Dispersion off
REM Cut-off 340.0000 eV Grid scale 1.7500 Gmax 16.5316 1/A FBSC none
REM MP grid 1 3 2 Offset 0.000 0.000 0.000 No. kpts 3 Spacing 0.07
REM Total runtime: 96899.3 s
REM Overall efficiency: 98.6667 %
REM
REM
REM
REM compiler GCC version 4.9.2
REM options -cpp -iprefix /lustre/shared/ucl/apps/gcc/4.9.2/bin/../lib/gcc/x86_64-unknown-linux-gnu/4.9.2/ -mtune=corei7 -march=x86-64 -g -Og
REM COMMAND_LINE
REM seed -1217454242 -659698699 279277391 1011929917 -960753547 -1718151891 1906238814 -1119451187 995297059 1286589478 -266105053 1708625752
REM
REM S 3|1.8|5|6|7|30:31:32(qc=5)
REM O 2|1.5|12|13|15|20:21(qc=5)
REM Li 1|1.3|8|9|10|10U:20(qc=5)
REM Fe 3|2.2|2.0|1.0|8|9|10|40:41:32(qc=5)
REM 
CELL 1.54180   16.61073    6.58937    8.40542  109.18699   90.00000   90.00000
LATT -1
SFAC Li O  S  Fe 
Li     1  0.2893220000000  0.2279930000000  0.3804030000000 1.0   0.03
Li     1 -0.2893220000000  0.2279930000000  0.3804030000000 1.0   0.03
Li     1  0.2888430000000  0.1627600000000 -0.0116500000000 1.0  -0.02
Li     1 -0.2888430000000  0.1627600000000 -0.0116500000000 1.0  -0.02
Li     1 -0.3241020000000 -0.3334060000000 -0.1499530000000 1.0  -0.00
Li     1  0.3241020000000 -0.3334060000000 -0.1499530000000 1.0  -0.00
Li     1  0.1989350000000 -0.4778900000000  0.3305640000000 1.0  -0.00
Li     1 -0.1989350000000 -0.4778900000000  0.3305640000000 1.0  -0.00
O      2  0.2811570000000  0.3403610000000  0.2038890000000 1.0   0.27
O      2 -0.2811570000000  0.3403610000000  0.2038890000000 1.0   0.27
O      2 -0.3055690000000 -0.0770440000000 -0.1865240000000 1.0   0.24
O      2  0.3055690000000 -0.0770440000000 -0.1865240000000 1.0   0.24
S      3 -0.2715750000000 -0.1430170000000  0.3590860000000 1.0   0.17
S      3  0.2715750000000 -0.1430170000000  0.3590860000000 1.0   0.17
S      3  0.4317510000000  0.5370830000000  0.0086440000000 1.0   0.08
S      3 -0.4317510000000  0.5370830000000  0.0086440000000 1.0   0.08
S      3 -0.2245520000000  0.5108880000000 -0.3886200000000 1.0   0.13
S      3  0.2245520000000  0.5108880000000 -0.3886200000000 1.0   0.13
Fe     4  0.2725630000000 -0.1875560000000 -0.3893470000000 1.0   2.69
Fe     4 -0.2725630000000 -0.1875560000000 -0.3893470000000 1.0   2.69
Fe     4  0.3484610000000 -0.4355930000000  0.2165840000000 1.0   3.39
Fe     4 -0.3484610000000 -0.4355930000000  0.2165840000000 1.0   3.39
END
