TITL LFSO-Li4Fe2S4O-200910-200359-b31ded -0.0141 404.635709 -8.35833452E+003 -11.2524 11.7539 22 (Cc) n - 1
REM
REM Run started: Fri, 11 Sep 2020 14:09:47 +0100 in /lustre/scratch/uccabz1/launch_tmp/launcher_2020-09-11-12-23-40-668011
REM CASTEP 20.1 from code version af48c487+ pr-geom-scf-spinfix Tue Jun 2 15:39:59 2020 +0100
REM Functional Perdew Burke Ernzerhof Relativity Koelling-Harmon Dispersion off
REM Cut-off 340.0000 eV Grid scale 1.7500 Gmax 16.5316 1/A FBSC none
REM MP grid 5 3 1 Offset 0.000 0.000 0.000 No. kpts 8 Spacing 0.07
REM Total runtime: 58871.8 s
REM Overall efficiency: 98.75 %
REM
REM
REM
REM compiler GCC version 4.9.2
REM options -cpp -iprefix /lustre/shared/ucl/apps/gcc/4.9.2/bin/../lib/gcc/x86_64-unknown-linux-gnu/4.9.2/ -mtune=corei7 -march=x86-64 -g -Og
REM COMMAND_LINE
REM seed -170114609 -734891404 -723586290 -1018813157 -953202999 941015104 1354262429 -1975580900 49833513 1891413121 642572663 -999327087
REM
REM S 3|1.8|5|6|7|30:31:32(qc=5)
REM O 2|1.5|12|13|15|20:21(qc=5)
REM Li 1|1.3|8|9|10|10U:20(qc=5)
REM Fe 3|2.2|2.0|1.0|8|9|10|40:41:32(qc=5)
REM 
CELL 1.54180    3.36964    6.84140   19.01945   72.77681   90.00000  104.25678
LATT -1
SFAC Li O  S  Fe 
Li     1 -0.6976940000000  0.4871080000000  0.1953560000000 1.0  -0.00
Li     1  0.1848020000000  0.4871080000000 -0.3046440000000 1.0  -0.00
Li     1  0.0213330000000 -0.1216990000000 -0.1329010000000 1.0   0.01
Li     1 -0.1430330000000 -0.1216990000000  0.3670990000000 1.0   0.01
Li     1 -0.6982820000000 -0.1754620000000 -0.3671070000000 1.0   0.01
Li     1  0.5228200000000 -0.1754620000000  0.1328930000000 1.0   0.01
Li     1 -0.1448740000000  0.5456460000000  0.0713900000000 1.0  -0.01
Li     1 -0.3094800000000  0.5456460000000  0.5713900000000 1.0  -0.01
O      2 -0.1063940000000 -0.3647040000000  0.1533520000000 1.0  -0.02
O      2 -0.2583100000000 -0.3647040000000 -0.3466480000000 1.0  -0.02
S      3  0.1211630000000  0.1283340000000  0.0087480000000 1.0  -0.08
S      3  0.0071710000000  0.1283340000000 -0.4912520000000 1.0  -0.08
S      3  0.0679690000000  0.2559380000000  0.3345850000000 1.0  -0.10
S      3  0.1879690000000  0.2559380000000 -0.1654150000000 1.0  -0.10
S      3 -0.5532400000000 -0.2667920000000 -0.0482720000000 1.0  -0.08
S      3  0.2864480000000 -0.2667920000000  0.4517280000000 1.0  -0.08
S      3  0.0818210000000  0.1923380000000 -0.3927410000000 1.0  -0.02
S      3  0.1105170000000  0.1923380000000  0.1072590000000 1.0  -0.02
Fe     4  0.5204530000000  0.1680410000000  0.4248430000000 1.0  -2.22
Fe     4 -0.3524120000000  0.1680410000000 -0.0751570000000 1.0  -2.22
Fe     4  0.2942210000000  0.4419010000000 -0.0835150000000 1.0  -3.11
Fe     4  0.1476810000000  0.4419010000000  0.4164850000000 1.0  -3.11
END
