TITL LFSO-LiFeSO-200909-060129-eecb45 0.0699 193.871261 -5.41660417E+003 9.01506 9.31007 12 (P31) n - 1
REM
REM Run started: Wed, 09 Sep 2020 08:51:19 +0100 in /lustre/scratch/uccabz1/launch_tmp/launcher_2020-09-09-05-01-27-853086
REM CASTEP 20.1 from code version af48c487+ pr-geom-scf-spinfix Tue Jun 2 15:39:59 2020 +0100
REM Functional Perdew Burke Ernzerhof Relativity Koelling-Harmon Dispersion off
REM Cut-off 340.0000 eV Grid scale 1.7500 Gmax 16.5316 1/A FBSC none
REM MP grid 3 3 3 Offset 0.000 0.000 0.000 No. kpts 8 Spacing 0.07
REM Total runtime: 11010.9 s
REM Overall efficiency: 86.4167 %
REM
REM
REM
REM compiler GCC version 4.9.2
REM options -cpp -iprefix /lustre/shared/ucl/apps/gcc/4.9.2/bin/../lib/gcc/x86_64-unknown-linux-gnu/4.9.2/ -mtune=corei7 -march=x86-64 -g -Og
REM COMMAND_LINE
REM seed -1768428915 -1555057701 -1836635557 -1247393630 1807215158 764120502 611713336 317772406 -2047120739 1419989759 -66294224 -1171059646
REM
REM S 3|1.8|5|6|7|30:31:32(qc=5)
REM O 2|1.5|12|13|15|20:21(qc=5)
REM Li 1|1.3|8|9|10|10U:20(qc=5)
REM Fe 3|2.2|2.0|1.0|8|9|10|40:41:32(qc=5)
REM 
CELL 1.54180    5.70788    5.70788    6.87121   90.00000   90.00000  120.00000
LATT -1
SFAC Li O  S  Fe 
Li     1 -0.4171010000000 -0.1422420000000  0.0133820000000 1.0   0.02
Li     1  0.2748580000000  0.4171010000000 -0.3199520000000 1.0   0.02
Li     1  0.1422420000000 -0.2748580000000  0.3467150000000 1.0   0.02
O      2 -0.3980490000000  0.5783330000000 -0.1412140000000 1.0   0.17
O      2 -0.0236170000000  0.3980490000000 -0.4745470000000 1.0   0.17
O      2 -0.5783330000000  0.0236170000000  0.1921200000000 1.0   0.17
S      3 -0.0193160000000  0.3685540000000 -0.0146590000000 1.0   0.26
S      3  0.3878700000000  0.0193160000000 -0.3479920000000 1.0   0.26
S      3 -0.3685540000000 -0.3878700000000  0.3186750000000 1.0   0.26
Fe     4 -0.3497780000000  0.2281420000000  0.3995180000000 1.0   2.56
Fe     4 -0.4220800000000  0.3497780000000  0.0661840000000 1.0   2.56
Fe     4 -0.2281420000000  0.4220800000000 -0.2671490000000 1.0   2.56
END
