TITL LFSO-Li4Fe2S2O3-200911-101313-790db9 -0.0091 368.950497 -8.89592069E+003 12.0495 12.4962 22 (Pnn2) n - 1
REM
REM Run started: Fri, 11 Sep 2020 14:49:09 +0100 in /lustre/scratch/uccabz1/launch_tmp/launcher_2020-09-11-09-13-11-896974
REM CASTEP 20.1 from code version af48c487+ pr-geom-scf-spinfix Tue Jun 2 15:39:59 2020 +0100
REM Functional Perdew Burke Ernzerhof Relativity Koelling-Harmon Dispersion off
REM Cut-off 340.0000 eV Grid scale 1.7500 Gmax 16.5316 1/A FBSC none
REM MP grid 4 2 2 Offset 0.000 0.000 0.000 No. kpts 2 Spacing 0.07
REM Total runtime: 17146.5 s
REM Overall efficiency: 85.6923 %
REM
REM
REM
REM compiler GCC version 4.9.2
REM options -cpp -iprefix /lustre/shared/ucl/apps/gcc/4.9.2/bin/../lib/gcc/x86_64-unknown-linux-gnu/4.9.2/ -mtune=corei7 -march=x86-64 -g -Og
REM COMMAND_LINE
REM seed -2032915275 912067650 1949734879 1483317294 767838826 -1222158293 -888078489 -6167837 669418964 30410871 -962254460 -87938727
REM
REM S 3|1.8|5|6|7|30:31:32(qc=5)
REM O 2|1.5|12|13|15|20:21(qc=5)
REM Li 1|1.3|8|9|10|10U:20(qc=5)
REM Fe 3|2.2|2.0|1.0|8|9|10|40:41:32(qc=5)
REM 
CELL 1.54180    3.69242    7.66843   13.03020   90.00000   90.00000   90.00000
LATT -1
SFAC Li O  S  Fe 
Li     1  0.2752000000000  0.0851450000000  0.2974470000000 1.0   0.01
Li     1 -0.2752000000000  0.0851450000000 -0.2974470000000 1.0   0.01
Li     1 -0.7752000000000 -0.4148550000000 -0.2025530000000 1.0   0.01
Li     1  0.7752000000000 -0.4148550000000  0.2025530000000 1.0   0.01
Li     1 -0.1343740000000  0.1424260000000  0.1043050000000 1.0  -0.02
Li     1  0.1343740000000  0.1424260000000 -0.1043050000000 1.0  -0.02
Li     1 -0.3656260000000 -0.3575740000000 -0.3956950000000 1.0  -0.02
Li     1  0.3656260000000 -0.3575740000000  0.3956950000000 1.0  -0.02
O      2 -0.2220460000000  0.5058780000000  0.0667020000000 1.0   0.09
O      2  0.2220460000000  0.5058780000000 -0.0667020000000 1.0   0.09
O      2 -0.2779540000000  0.0058780000000 -0.4332980000000 1.0   0.09
O      2  0.2779540000000  0.0058780000000  0.4332980000000 1.0   0.09
O      2 -0.5000000000000  0.2024070000000  0.0000000000000 1.0   0.34
O      2 -0.0000000000000  0.7024070000000  0.5000000000000 1.0   0.34
S      3 -0.2342730000000 -0.1162180000000  0.2595300000000 1.0   0.16
S      3  0.2342730000000 -0.1162180000000 -0.2595300000000 1.0   0.16
S      3 -0.2657270000000 -0.6162180000000 -0.2404700000000 1.0   0.16
S      3  0.2657270000000 -0.6162180000000  0.2404700000000 1.0   0.16
Fe     4  0.2266990000000 -0.0743060000000 -0.4279860000000 1.0   2.60
Fe     4 -0.2266990000000 -0.0743060000000  0.4279860000000 1.0   2.60
Fe     4  0.2733010000000  0.4256940000000  0.0720140000000 1.0   2.60
Fe     4 -0.2733010000000  0.4256940000000 -0.0720140000000 1.0   2.60
END
