TITL LFSO-Li5FeS3O-200910-105708-68129c -0.1296 360.617646 -6.42695462E+003 6.00000 6.67252 20 (P21) n - 1
REM
REM Run started: Thu, 10 Sep 2020 16:40:35 +0100 in /lustre/scratch/uccabz1/launch_tmp/launcher_2020-09-10-09-57-06-766683
REM CASTEP 20.1 from code version af48c487+ pr-geom-scf-spinfix Tue Jun 2 15:39:59 2020 +0100
REM Functional Perdew Burke Ernzerhof Relativity Koelling-Harmon Dispersion off
REM Cut-off 340.0000 eV Grid scale 1.7500 Gmax 16.5316 1/A FBSC none
REM MP grid 3 3 2 Offset 0.000 0.000 0.000 No. kpts 5 Spacing 0.07
REM Total runtime: 23040.4 s
REM Overall efficiency: 84.5833 %
REM
REM
REM
REM compiler GCC version 4.9.2
REM options -cpp -iprefix /lustre/shared/ucl/apps/gcc/4.9.2/bin/../lib/gcc/x86_64-unknown-linux-gnu/4.9.2/ -mtune=corei7 -march=x86-64 -g -Og
REM COMMAND_LINE
REM seed 1609116162 2006287482 -833967918 1942999667 490843557 -1367064316 466825358 1864654942 -1622813810 -2001619073 -1112935500 941832579
REM
REM S 3|1.8|5|6|7|30:31:32(qc=5)
REM O 2|1.5|12|13|15|20:21(qc=5)
REM Li 1|1.3|8|9|10|10U:20(qc=5)
REM Fe 3|2.2|2.0|1.0|8|9|10|40:41:32(qc=5)
REM 
CELL 1.54180    7.17031    9.23843    6.78894   90.00000   90.00000  126.69010
LATT -1
SFAC Li O  S  Fe 
Li     1 -0.3051810000000  0.2505560000000 -0.5183470000000 1.0   0.02
Li     1  0.3051810000000 -0.2505560000000 -0.0183470000000 1.0   0.02
Li     1  0.2682410000000 -0.4171270000000  0.3881600000000 1.0  -0.00
Li     1 -0.2682410000000  0.4171270000000 -0.1118400000000 1.0  -0.00
Li     1 -0.0420900000000  0.0554980000000 -0.5811230000000 1.0  -0.04
Li     1  0.0420900000000 -0.0554980000000 -0.0811230000000 1.0  -0.04
Li     1  0.2486410000000 -0.0758930000000  0.4990030000000 1.0  -0.00
Li     1 -0.2486410000000  0.0758930000000 -0.0009970000000 1.0  -0.00
Li     1 -0.2771990000000 -0.3748590000000 -0.4086510000000 1.0   0.00
Li     1  0.2771990000000  0.3748590000000  0.0913490000000 1.0   0.00
O      2 -0.0573140000000 -0.1655340000000  0.4408280000000 1.0   0.23
O      2  0.0573140000000  0.1655340000000 -0.0591720000000 1.0   0.23
S      3  0.6213970000000 -0.3465440000000 -0.0752740000000 1.0   0.08
S      3 -0.6213970000000  0.3465440000000  0.4247260000000 1.0   0.08
S      3 -0.4248110000000 -0.1099940000000  0.2834700000000 1.0  -0.01
S      3  0.4248110000000  0.1099940000000 -0.2165300000000 1.0  -0.01
S      3  0.0534930000000 -0.5747200000000 -0.3249210000000 1.0   0.04
S      3 -0.0534930000000  0.5747200000000  0.1750790000000 1.0   0.04
Fe     4  0.2080970000000  0.2747410000000 -0.2800280000000 1.0   2.69
Fe     4 -0.2080970000000 -0.2747410000000  0.2199720000000 1.0   2.69
END
