TITL LFSO-Li2Fe4SO4-200912-003839-004b82 -0.0142 161.758558 -5.90825771E+003 11.5800 11.9518 11 (R3) n - 1
REM
REM Run started: Sat, 12 Sep 2020 04:33:30 +0100 in /lustre/scratch/uccabz1/launch_tmp/launcher_2020-09-11-23-38-37-924633
REM CASTEP 20.1 from code version af48c487+ pr-geom-scf-spinfix Tue Jun 2 15:39:59 2020 +0100
REM Functional Perdew Burke Ernzerhof Relativity Koelling-Harmon Dispersion off
REM Cut-off 340.0000 eV Grid scale 1.7500 Gmax 16.5316 1/A FBSC none
REM MP grid 4 4 4 Offset 0.000 0.000 0.000 No. kpts 12 Spacing 0.07
REM Total runtime: 14296.8 s
REM Overall efficiency: 95.9 %
REM
REM
REM
REM compiler GCC version 4.9.2
REM options -cpp -iprefix /lustre/shared/ucl/apps/gcc/4.9.2/bin/../lib/gcc/x86_64-unknown-linux-gnu/4.9.2/ -mtune=corei7 -march=x86-64 -g -Og
REM COMMAND_LINE
REM seed -156558253 -1072373417 1755684772 779414264 -1027011724 -640180470 813977773 -2129075235 1318553460 893572551 958858960 1473752532
REM
REM S 3|1.8|5|6|7|30:31:32(qc=5)
REM O 2|1.5|12|13|15|20:21(qc=5)
REM Li 1|1.3|8|9|10|10U:20(qc=5)
REM Fe 3|2.2|2.0|1.0|8|9|10|40:41:32(qc=5)
REM 
CELL 1.54180    7.81193    7.81193    7.81193   37.94087   37.94087   37.94087
LATT -1
SFAC Li O  S  Fe 
Li     1  0.5326050000000  0.5326050000000  0.5326050000000 1.0  -0.02
Li     1 -0.1226350000000 -0.1226350000000 -0.1226350000000 1.0   0.07
O      2  0.1460780000000 -0.4678290000000 -0.1926550000000 1.0   0.18
O      2 -0.1926550000000  0.1460780000000 -0.4678290000000 1.0   0.18
O      2 -0.4678290000000 -0.1926550000000  0.1460780000000 1.0   0.18
O      2  0.0698220000000  0.0698220000000  0.0698220000000 1.0   0.06
S      3  0.3732310000000  0.3732310000000  0.3732310000000 1.0  -0.10
Fe     4 -0.2062090000000  0.4645540000000  0.0688410000000 1.0   2.49
Fe     4  0.0688410000000 -0.2062090000000  0.4645540000000 1.0   2.49
Fe     4  0.4645540000000  0.0688410000000 -0.2062090000000 1.0   2.49
Fe     4 -0.3053970000000 -0.3053970000000 -0.3053970000000 1.0   3.58
END
