TITL LFSO-Li4FeSO2-200910-085736-36bf8a -0.0021 122.830985 -2.84280465E+003 4.00192 4.06945 8 (C2) n - 1
REM
REM Run started: Thu, 10 Sep 2020 11:03:11 +0100 in /lustre/scratch/uccabz1/launch_tmp/launcher_2020-09-10-07-57-35-287909
REM CASTEP 20.1 from code version af48c487+ pr-geom-scf-spinfix Tue Jun 2 15:39:59 2020 +0100
REM Functional Perdew Burke Ernzerhof Relativity Koelling-Harmon Dispersion off
REM Cut-off 340.0000 eV Grid scale 1.7500 Gmax 16.5316 1/A FBSC none
REM MP grid 5 3 4 Offset 0.000 0.000 0.000 No. kpts 28 Spacing 0.07
REM Total runtime: 8023.52 s
REM Overall efficiency: 89.25 %
REM
REM
REM
REM compiler GCC version 4.9.2
REM options -cpp -iprefix /lustre/shared/ucl/apps/gcc/4.9.2/bin/../lib/gcc/x86_64-unknown-linux-gnu/4.9.2/ -mtune=corei7 -march=x86-64 -g -Og
REM COMMAND_LINE
REM seed -1649239011 189965397 -1011277001 -743891325 2077766211 -1550249013 -1148917906 568817035 861838796 240708126 985476739 -1382090796
REM
REM S 3|1.8|5|6|7|30:31:32(qc=5)
REM O 2|1.5|12|13|15|20:21(qc=5)
REM Li 1|1.3|8|9|10|10U:20(qc=5)
REM Fe 3|2.2|2.0|1.0|8|9|10|40:41:32(qc=5)
REM 
CELL 1.54180    6.25750    6.32314    6.26960  113.99327  145.26450   60.34286
LATT -1
SFAC Li O  S  Fe 
Li     1 -0.7324710000000  0.0864970000000 -0.3234310000000 1.0  -0.02
Li     1  0.6459740000000  0.0864970000000  0.3234310000000 1.0  -0.02
Li     1  0.5728710000000 -0.5161230000000  0.1094870000000 1.0  -0.00
Li     1 -0.0567490000000 -0.5161230000000 -0.1094870000000 1.0  -0.00
O      2  0.0805310000000  0.1564090000000 -0.1430860000000 1.0   0.18
O      2 -0.2369400000000  0.1564090000000  0.1430860000000 1.0   0.18
S      3 -0.3875610000000 -0.2248770000000 -0.5000000000000 1.0   0.19
Fe     4 -0.0270790000000  0.0541580000000  0.0000000000000 1.0   3.50
END
