TITL LFSO-Li3FeSO2-200911-162359-88b073 0.0180 215.501298 -5.28617939E+003 6.13805 6.50766 14 (Aea2) n - 1
REM
REM Run started: Fri, 11 Sep 2020 17:31:14 +0100 in /lustre/scratch/uccabz1/launch_tmp/launcher_2020-09-11-15-23-58-314515
REM CASTEP 20.1 from code version af48c487+ pr-geom-scf-spinfix Tue Jun 2 15:39:59 2020 +0100
REM Functional Perdew Burke Ernzerhof Relativity Koelling-Harmon Dispersion off
REM Cut-off 340.0000 eV Grid scale 1.7500 Gmax 16.5316 1/A FBSC none
REM MP grid 3 3 2 Offset 0.000 0.000 0.000 No. kpts 4 Spacing 0.07
REM Total runtime: 4690.32 s
REM Overall efficiency: 95.8571 %
REM
REM
REM
REM compiler GCC version 4.9.2
REM options -cpp -iprefix /lustre/shared/ucl/apps/gcc/4.9.2/bin/../lib/gcc/x86_64-unknown-linux-gnu/4.9.2/ -mtune=corei7 -march=x86-64 -g -Og
REM COMMAND_LINE
REM seed -575033739 -785274550 81785197 -172836281 1754402823 649905187 -1794202151 -1235757396 -809325015 884757059 -131217462 2099500053
REM
REM S 3|1.8|5|6|7|30:31:32(qc=5)
REM O 2|1.5|12|13|15|20:21(qc=5)
REM Li 1|1.3|8|9|10|10U:20(qc=5)
REM Fe 3|2.2|2.0|1.0|8|9|10|40:41:32(qc=5)
REM 
CELL 1.54180    4.84833    4.84833    9.23096   90.00000   90.00000   96.70549
LATT -1
SFAC Li O  S  Fe 
Li     1 -0.0543620000000  0.5120460000000  0.2667630000000 1.0  -0.01
Li     1 -0.5120460000000  0.0543620000000 -0.2667630000000 1.0  -0.01
Li     1 -0.0120460000000 -0.4456380000000 -0.2332370000000 1.0  -0.01
Li     1  0.4456380000000  0.0120460000000  0.2332370000000 1.0  -0.01
Li     1 -0.4574140000000  0.4574140000000  0.0000000000000 1.0   0.00
Li     1  0.0425860000000 -0.0425860000000 -0.5000000000000 1.0   0.00
O      2 -0.2556170000000  0.2682680000000 -0.1454180000000 1.0   0.18
O      2 -0.2682680000000  0.2556170000000  0.1454180000000 1.0   0.18
O      2  0.2317320000000 -0.2443830000000  0.3545820000000 1.0   0.18
O      2  0.2443830000000 -0.2317320000000 -0.3545820000000 1.0   0.18
S      3  0.1886690000000 -0.1886690000000  0.0000000000000 1.0   0.14
S      3 -0.3113310000000  0.3113310000000 -0.5000000000000 1.0   0.14
Fe     4 -0.1060570000000  0.1060570000000  0.0000000000000 1.0   2.59
Fe     4  0.3939430000000 -0.3939430000000 -0.5000000000000 1.0   2.59
END
