TITL LFSO-Li5FeS2O2-200920-233224-636526 -0.0017 345.165217 -6.69291236E+003 6.00121 6.64794 20 (I4) n - 1
REM
REM Run started: Mon, 21 Sep 2020 03:34:13 +0100 in /lustre/scratch/uccabz1/launch_tmp/launcher_2020-09-20-22-32-22-503900
REM CASTEP 20.1 from code version af48c487+ pr-geom-scf-spinfix Tue Jun 2 15:39:59 2020 +0100
REM Functional Perdew Burke Ernzerhof Relativity Koelling-Harmon Dispersion off
REM Cut-off 340.0000 eV Grid scale 1.7500 Gmax 16.5316 1/A FBSC none
REM MP grid 3 3 3 Offset 0.000 0.000 0.000 No. kpts 6 Spacing 0.07
REM Total runtime: 14656.8 s
REM Overall efficiency: 97 %
REM
REM
REM
REM compiler GCC version 4.9.2
REM options -cpp -iprefix /lustre/shared/ucl/apps/gcc/4.9.2/bin/../lib/gcc/x86_64-unknown-linux-gnu/4.9.2/ -mtune=corei7 -march=x86-64 -g -Og
REM COMMAND_LINE
REM seed -1215599883 1843380773 636242673 -76379532 811000583 -969299120 -403684223 448215730 -812465388 2110541038 -123569270 1002290991
REM
REM S 3|1.8|5|6|7|30:31:32(qc=5)
REM O 2|1.5|12|13|15|20:21(qc=5)
REM Li 1|1.3|8|9|10|10U:20(qc=5)
REM Fe 3|2.2|2.0|1.0|8|9|10|40:41:32(qc=5)
REM 
CELL 1.54180    7.96702    7.96702    7.96702   86.31018  122.15270  122.15270
LATT -1
SFAC Li O  S  Fe 
Li     1  0.0248320000000 -0.4016930000000 -0.0155510000000 1.0  -0.02
Li     1 -0.0248320000000 -0.0403830000000  0.5734750000000 1.0  -0.02
Li     1 -0.3861430000000  0.5734750000000 -0.4016930000000 1.0  -0.02
Li     1  0.3861430000000 -0.0155510000000 -0.0403830000000 1.0  -0.02
Li     1  0.6278320000000  0.4330540000000  0.2908440000000 1.0   0.00
Li     1 -0.6278320000000 -0.3369870000000 -0.1947770000000 1.0   0.00
Li     1  0.1422100000000 -0.1947770000000  0.4330540000000 1.0   0.00
Li     1 -0.1422100000000  0.2908440000000 -0.3369870000000 1.0   0.00
Li     1 -0.5000000000000 -0.3921150000000  0.1078850000000 1.0   0.01
Li     1  0.5000000000000  0.1078850000000 -0.3921150000000 1.0   0.01
O      2 -0.2877730000000  0.3892820000000 -0.2578030000000 1.0   0.12
O      2  0.2877730000000  0.0299700000000 -0.3229450000000 1.0   0.12
O      2 -0.3529150000000 -0.3229450000000  0.3892820000000 1.0   0.12
O      2  0.3529150000000 -0.2578030000000  0.0299700000000 1.0   0.12
S      3 -0.2064750000000 -0.3899900000000  0.0922480000000 1.0   0.05
S      3  0.2064750000000  0.2987230000000 -0.1835150000000 1.0   0.05
S      3 -0.4822370000000 -0.1835150000000 -0.3899900000000 1.0   0.05
S      3  0.4822370000000  0.0922480000000  0.2987230000000 1.0   0.05
Fe     4 -0.5000000000000 -0.1811370000000  0.3188630000000 1.0   2.70
Fe     4  0.5000000000000  0.3188630000000 -0.1811370000000 1.0   2.70
END
