TITL LFSO-Li2Fe2S3O-200913-021551-cf1456 0.0459 272.603474 -6.95060332E+003 13.6304 14.7348 16 (P3) n - 1
REM
REM Run started: Sun, 13 Sep 2020 14:36:07 +0100 in /lustre/scratch/uccabz1/launch_tmp/launcher_2020-09-13-01-15-49-607619
REM CASTEP 20.1 from code version af48c487+ pr-geom-scf-spinfix Tue Jun 2 15:39:59 2020 +0100
REM Functional Perdew Burke Ernzerhof Relativity Koelling-Harmon Dispersion off
REM Cut-off 340.0000 eV Grid scale 1.7500 Gmax 16.5316 1/A FBSC none
REM MP grid 4 2 2 Offset 0.000 0.000 0.000 No. kpts 8 Spacing 0.07
REM Total runtime: 44897.5 s
REM Overall efficiency: 93.5385 %
REM
REM
REM
REM compiler GCC version 4.9.2
REM options -cpp -iprefix /lustre/shared/ucl/apps/gcc/4.9.2/bin/../lib/gcc/x86_64-unknown-linux-gnu/4.9.2/ -mtune=corei7 -march=x86-64 -g -Og
REM COMMAND_LINE
REM seed -695756711 1078051082 -1573506887 -1302835197 -952401467 2144939596 -919777325 2013242160 -711757863 1148530337 -85545190 377447317
REM
REM S 3|1.8|5|6|7|30:31:32(qc=5)
REM O 2|1.5|12|13|15|20:21(qc=5)
REM Li 1|1.3|8|9|10|10U:20(qc=5)
REM Fe 3|2.2|2.0|1.0|8|9|10|40:41:32(qc=5)
REM 
CELL 1.54180    3.82679    9.06950    9.06950  120.00000   90.00000   90.00000
LATT -1
SFAC Li O  S  Fe 
Li     1 -0.3344890000000  0.3129190000000 -0.1629070000000 1.0   0.06
Li     1 -0.3344890000000  0.1629070000000  0.4758260000000 1.0   0.06
Li     1 -0.3344890000000 -0.4758260000000 -0.3129190000000 1.0   0.06
Li     1 -0.3520940000000 -0.3333330000000  0.3333330000000 1.0  -0.07
O      2  0.1474270000000 -0.3333330000000  0.3333330000000 1.0   0.26
O      2 -0.0628760000000  0.3333330000000 -0.3333330000000 1.0  -0.33
S      3 -0.3519000000000 -0.1858480000000 -0.2890510000000 1.0   0.17
S      3 -0.3519000000000  0.2890510000000  0.1032030000000 1.0   0.17
S      3 -0.3519000000000 -0.1032030000000  0.1858480000000 1.0   0.17
S      3  0.2066470000000 -0.4476100000000 -0.0977240000000 1.0   0.14
S      3  0.2066470000000  0.0977240000000 -0.3498860000000 1.0   0.14
S      3  0.2066470000000  0.3498860000000  0.4476100000000 1.0   0.14
Fe     4  0.1554040000000 -0.2539360000000  0.1576010000000 1.0   3.07
Fe     4  0.1554040000000 -0.1576010000000 -0.4115380000000 1.0   3.07
Fe     4  0.1554040000000  0.4115380000000  0.2539360000000 1.0   3.07
Fe     4 -0.3148210000000  0.0000000000000 -0.0000000000000 1.0   3.48
END
