TITL LFSO-LiFe3S2O3-200909-202355-e59f3c -0.0163 204.171373 -4.71028097E+003 3.26321 3.64535 9 (Amm2) n - 1
REM
REM Run started: Wed, 09 Sep 2020 23:27:42 +0100 in /lustre/scratch/uccabz1/launch_tmp/launcher_2020-09-09-19-23-53-057996
REM CASTEP 20.1 from code version af48c487+ pr-geom-scf-spinfix Tue Jun 2 15:39:59 2020 +0100
REM Functional Perdew Burke Ernzerhof Relativity Koelling-Harmon Dispersion off
REM Cut-off 340.0000 eV Grid scale 1.7500 Gmax 16.5316 1/A FBSC none
REM MP grid 4 3 2 Offset 0.000 0.000 0.000 No. kpts 6 Spacing 0.07
REM Total runtime: 11242.9 s
REM Overall efficiency: 95.625 %
REM
REM
REM
REM compiler GCC version 4.9.2
REM options -cpp -iprefix /lustre/shared/ucl/apps/gcc/4.9.2/bin/../lib/gcc/x86_64-unknown-linux-gnu/4.9.2/ -mtune=corei7 -march=x86-64 -g -Og
REM COMMAND_LINE
REM seed -1461411816 -1495562055 1807653576 -889299413 181266677 1443719310 -514224189 -2083919884 -1510891518 -963699965 -293712418 -190144801
REM
REM S 3|1.8|5|6|7|30:31:32(qc=5)
REM O 2|1.5|12|13|15|20:21(qc=5)
REM Li 1|1.3|8|9|10|10U:20(qc=5)
REM Fe 3|2.2|2.0|1.0|8|9|10|40:41:32(qc=5)
REM 
CELL 1.54180    5.11017    5.78109    7.70449   90.00000   90.00000  116.22979
LATT -1
SFAC Li O  S  Fe 
Li     1 -0.0138890000000 -0.0277780000000 -0.5000000000000 1.0  -0.02
O      2  0.2504260000000  0.5008520000000 -0.3425900000000 1.0   0.04
O      2  0.2504260000000  0.5008520000000  0.3425900000000 1.0   0.04
O      2 -0.1787240000000 -0.3574480000000 -0.5000000000000 1.0   0.18
S      3 -0.4419740000000  0.1160530000000  0.3192190000000 1.0  -0.03
S      3 -0.4419740000000  0.1160530000000 -0.3192190000000 1.0  -0.03
Fe     4 -0.0644270000000  0.3915300000000  0.5000000000000 1.0   1.32
Fe     4  0.4559570000000  0.3915300000000  0.5000000000000 1.0   1.32
Fe     4  0.3899460000000 -0.2201070000000  0.5000000000000 1.0   0.44
END
