TITL LFSO-Li2Fe2SO3-200913-110114-604bc6 -0.0574 303.521641 -1.12315018E+004 15.3954 16.1191 24 (P3) n - 1
REM
REM Run started: Mon, 14 Sep 2020 01:06:25 +0100 in /lustre/scratch/uccabz1/launch_tmp/launcher_2020-09-13-10-01-12-826442
REM CASTEP 20.1 from code version af48c487+ pr-geom-scf-spinfix Tue Jun 2 15:39:59 2020 +0100
REM Functional Perdew Burke Ernzerhof Relativity Koelling-Harmon Dispersion off
REM Cut-off 340.0000 eV Grid scale 1.7500 Gmax 16.5316 1/A FBSC none
REM MP grid 5 2 2 Offset 0.000 0.000 0.000 No. kpts 10 Spacing 0.07
REM Total runtime: 50958.1 s
REM Overall efficiency: 76.375 %
REM
REM
REM
REM compiler GCC version 4.9.2
REM options -cpp -iprefix /lustre/shared/ucl/apps/gcc/4.9.2/bin/../lib/gcc/x86_64-unknown-linux-gnu/4.9.2/ -mtune=corei7 -march=x86-64 -g -Og
REM COMMAND_LINE
REM seed 835116957 1566054485 940163192 1020934315 -615584484 1625873257 -551455204 -291704558 -1252304132 1498826804 -2057150998 -1092821929
REM
REM S 3|1.8|5|6|7|30:31:32(qc=5)
REM O 2|1.5|12|13|15|20:21(qc=5)
REM Li 1|1.3|8|9|10|10U:20(qc=5)
REM Fe 3|2.2|2.0|1.0|8|9|10|40:41:32(qc=5)
REM 
CELL 1.54180    3.44448   10.08714   10.08714  120.00000   90.00000   90.00000
LATT -1
SFAC Li O  S  Fe 
Li     1 -0.2795020000000  0.0242770000000  0.1649110000000 1.0  -0.02
Li     1 -0.2795020000000 -0.1649110000000 -0.1406340000000 1.0  -0.02
Li     1 -0.2795020000000  0.1406340000000 -0.0242770000000 1.0  -0.02
Li     1  0.3826440000000  0.2777040000000  0.2746450000000 1.0  -0.01
Li     1  0.3826440000000 -0.2746450000000  0.0030580000000 1.0  -0.01
Li     1  0.3826440000000 -0.0030580000000 -0.2777040000000 1.0  -0.01
O      2 -0.1098510000000  0.2042740000000  0.1782130000000 1.0   0.04
O      2 -0.1098510000000 -0.1782130000000  0.0260610000000 1.0   0.04
O      2 -0.1098510000000 -0.0260610000000 -0.2042740000000 1.0   0.04
O      2  0.4026270000000  0.2754820000000  0.4695370000000 1.0   0.27
O      2  0.4026270000000 -0.4695370000000 -0.1940550000000 1.0   0.27
O      2  0.4026270000000  0.1940550000000 -0.2754820000000 1.0   0.27
O      2 -0.5833770000000 -0.1098850000000  0.2454170000000 1.0   0.23
O      2 -0.5833770000000 -0.2454170000000 -0.3553020000000 1.0   0.23
O      2 -0.5833770000000  0.3553020000000  0.1098850000000 1.0   0.23
S      3 -0.0930520000000 -0.4770450000000  0.4215380000000 1.0  -0.05
S      3 -0.0930520000000 -0.4215380000000  0.1014170000000 1.0  -0.05
S      3 -0.0930520000000 -0.1014170000000  0.4770450000000 1.0  -0.05
Fe     4 -0.0792980000000  0.4002080000000  0.1726290000000 1.0   1.83
Fe     4 -0.0792980000000 -0.1726290000000  0.2275800000000 1.0   1.83
Fe     4 -0.0792980000000 -0.2275800000000 -0.4002080000000 1.0   1.83
Fe     4 -0.0968010000000  0.1936540000000 -0.3226970000000 1.0   2.84
Fe     4 -0.0968010000000  0.3226970000000 -0.4836490000000 1.0   2.84
Fe     4 -0.0968010000000  0.4836490000000 -0.1936540000000 1.0   2.84
END
