TITL LFSO-Li3Fe3S4O2-200929-052921-80d0db 0.0112 195.830839 -5.28000887E+003 0.785144E-02 0.161672E-01 12 (Pm) n - 1
REM
REM Run started: Tue, 29 Sep 2020 09:58:23 +0100 in /lustre/scratch/uccabz1/launch_tmp/launcher_2020-09-29-04-29-19-375098
REM CASTEP 20.1 from code version af48c487+ pr-geom-scf-spinfix Tue Jun 2 15:39:59 2020 +0100
REM Functional Perdew Burke Ernzerhof Relativity Koelling-Harmon Dispersion off
REM Cut-off 340.0000 eV Grid scale 1.7500 Gmax 16.5316 1/A FBSC none
REM MP grid 3 3 3 Offset 0.000 0.000 0.000 No. kpts 10 Spacing 0.07
REM Total runtime: 16216.2 s
REM Overall efficiency: 83.2 %
REM
REM
REM
REM compiler GCC version 4.9.2
REM options -cpp -iprefix /lustre/shared/ucl/apps/gcc/4.9.2/bin/../lib/gcc/x86_64-unknown-linux-gnu/4.9.2/ -mtune=corei7 -march=x86-64 -g -Og
REM COMMAND_LINE
REM seed -1041854062 1992236997 -159000245 -727759737 427663476 -1871427423 -221200573 -449034591 1995355680 -1682081400 -1009755492 867304671
REM
REM S 3|1.8|5|6|7|30:31:32(qc=5)
REM O 2|1.5|12|13|15|20:21(qc=5)
REM Li 1|1.3|8|9|10|10U:20(qc=5)
REM Fe 3|2.2|2.0|1.0|8|9|10|40:41:32(qc=5)
REM 
CELL 1.54180    5.73656    6.23731    6.16840   90.00000   90.00000  117.46686
LATT -1
SFAC Li O  S  Fe 
Li     1  0.4066810000000 -0.3280810000000 -0.2510510000000 1.0
Li     1  0.4066810000000 -0.3280810000000  0.2510510000000 1.0
Li     1  0.1183560000000 -0.1337990000000 -0.5000000000000 1.0
O      2  0.3579960000000 -0.0630300000000 -0.2594530000000 1.0
O      2  0.3579960000000 -0.0630300000000  0.2594530000000 1.0
S      3  0.0547870000000  0.2523770000000 -0.2368170000000 1.0
S      3  0.0547870000000  0.2523770000000  0.2368170000000 1.0
S      3 -0.2691380000000 -0.4750060000000 -0.2561240000000 1.0
S      3 -0.2691380000000 -0.4750060000000  0.2561240000000 1.0
Fe     4 -0.6140420000000  0.2074460000000  0.1797090000000 1.0
Fe     4 -0.6140420000000  0.2074460000000 -0.1797090000000 1.0
Fe     4 -0.1417530000000  0.3229120000000 -0.5000000000000 1.0
END
