TITL LFSO-Li6FeS2O2-200920-210851-af07ed 0.0181 277.170274 -3.54544005E+003 3.99998 4.06482 11 (Imm2) n - 1
REM
REM Run started: Mon, 21 Sep 2020 04:50:22 +0100 in /lustre/scratch/uccabz1/launch_tmp/launcher_2020-09-20-20-08-50-107630
REM CASTEP 20.1 from code version af48c487+ pr-geom-scf-spinfix Tue Jun 2 15:39:59 2020 +0100
REM Functional Perdew Burke Ernzerhof Relativity Koelling-Harmon Dispersion off
REM Cut-off 340.0000 eV Grid scale 1.7500 Gmax 16.5316 1/A FBSC none
REM MP grid 3 3 4 Offset 0.000 0.000 0.000 No. kpts 18 Spacing 0.07
REM Total runtime: 32842 s
REM Overall efficiency: 97.1818 %
REM
REM
REM
REM compiler GCC version 4.9.2
REM options -cpp -iprefix /lustre/shared/ucl/apps/gcc/4.9.2/bin/../lib/gcc/x86_64-unknown-linux-gnu/4.9.2/ -mtune=corei7 -march=x86-64 -g -Og
REM COMMAND_LINE
REM seed -32583468 935140712 1387670071 -164702913 -44964331 848736007 -2051787291 272646888 1007495104 1588902081 -1635525769 831028025
REM
REM S 3|1.8|5|6|7|30:31:32(qc=5)
REM O 2|1.5|12|13|15|20:21(qc=5)
REM Li 1|1.3|8|9|10|10U:20(qc=5)
REM Fe 3|2.2|2.0|1.0|8|9|10|40:41:32(qc=5)
REM 
CELL 1.54180    9.04181    9.04181    9.04181  141.20843  142.93533   54.73311
LATT -1
SFAC Li O  S  Fe 
Li     1 -0.0278080000000  0.0261420000000  0.3667780000000 1.0  -0.00
Li     1  0.3406350000000 -0.0261420000000 -0.0539510000000 1.0  -0.00
Li     1 -0.0278080000000 -0.3945860000000 -0.0539510000000 1.0  -0.00
Li     1  0.3406350000000  0.3945860000000  0.3667780000000 1.0  -0.00
Li     1  0.5706320000000 -0.1590220000000 -0.2703460000000 1.0  -0.02
Li     1 -0.1113240000000  0.1590220000000 -0.2703460000000 1.0  -0.02
O      2 -0.0931120000000 -0.1103170000000  0.0172040000000 1.0   0.20
O      2  0.1275210000000  0.1103170000000  0.0172040000000 1.0   0.20
S      3 -0.3010780000000  0.2571250000000  0.4417970000000 1.0   0.01
S      3  0.1846720000000 -0.2571250000000  0.4417970000000 1.0   0.01
Fe     4  0.0259030000000  0.0000000000000  0.0259030000000 1.0   3.65
END
