TITL LFSO-Li2Fe4SO4-200911-234156-349109 0.1111 308.180177 -1.18105227E+004 0.113477 0.184754 22 (Pm) n - 1
REM
REM Run started: Mon, 14 Sep 2020 00:37:43 +0100 in /lustre/scratch/uccabz1/launch_tmp/launcher_2020-09-13-22-39-16-976273
REM CASTEP 20.1 from code version af48c487+ pr-geom-scf-spinfix Tue Jun 2 15:39:59 2020 +0100
REM Functional Perdew Burke Ernzerhof Relativity Koelling-Harmon Dispersion off
REM Cut-off 340.0000 eV Grid scale 1.7500 Gmax 16.5316 1/A FBSC none
REM MP grid 3 3 2 Offset 0.000 0.000 0.000 No. kpts 6 Spacing 0.07
REM Total runtime: 144329 s
REM Overall efficiency: 98.3846 %
REM
REM
REM
REM compiler GCC version 4.9.2
REM options -cpp -iprefix /lustre/shared/ucl/apps/gcc/4.9.2/bin/../lib/gcc/x86_64-unknown-linux-gnu/4.9.2/ -mtune=corei7 -march=x86-64 -g -Og
REM COMMAND_LINE
REM seed -1395286095 -721224488 -1839775753 292435825 262817340 -1383732522 879982052 -908233827 1971693423 1996265526 -219106064 -396997851
REM
REM S 3|1.8|5|6|7|30:31:32(qc=5)
REM O 2|1.5|12|13|15|20:21(qc=5)
REM Li 1|1.3|8|9|10|10U:20(qc=5)
REM Fe 3|2.2|2.0|1.0|8|9|10|40:41:32(qc=5)
REM 
CELL 1.54180    5.90125    6.70868    8.83198   90.00000  118.19017   90.00000
LATT -1
SFAC Li O  S  Fe 
Li     1  0.2322800000000  0.3049440000000  0.0316640000000 1.0  -0.00
Li     1  0.2322800000000 -0.3049440000000  0.0316640000000 1.0  -0.00
Li     1 -0.3556010000000 -0.1780590000000  0.1984450000000 1.0  -0.00
Li     1 -0.3556010000000  0.1780590000000  0.1984450000000 1.0  -0.00
O      2 -0.5131160000000 -0.2397550000000 -0.0280500000000 1.0   0.00
O      2 -0.5131160000000  0.2397550000000 -0.0280500000000 1.0   0.00
O      2 -0.0711130000000 -0.2704260000000  0.3630890000000 1.0   0.00
O      2 -0.0711130000000  0.2704260000000  0.3630890000000 1.0   0.00
O      2 -0.0775590000000 -0.2654340000000 -0.1834420000000 1.0   0.00
O      2 -0.0775590000000  0.2654340000000 -0.1834420000000 1.0   0.00
O      2  0.3334370000000 -0.2246270000000 -0.3524570000000 1.0   0.00
O      2  0.3334370000000  0.2246270000000 -0.3524570000000 1.0   0.00
S      3  0.4420150000000  0.2632990000000  0.3587890000000 1.0  -0.00
S      3  0.4420150000000 -0.2632990000000  0.3587890000000 1.0  -0.00
Fe     4  0.1944470000000  0.1665320000000 -0.2278700000000 1.0   0.00
Fe     4  0.1944470000000 -0.1665320000000 -0.2278700000000 1.0   0.00
Fe     4  0.0575710000000  0.3478850000000  0.2462200000000 1.0   0.03
Fe     4  0.0575710000000 -0.3478850000000  0.2462200000000 1.0   0.03
Fe     4 -0.4071240000000  0.3331860000000 -0.3591530000000 1.0   0.01
Fe     4 -0.4071240000000 -0.3331860000000 -0.3591530000000 1.0   0.01
Fe     4 -0.2279080000000 -0.3467130000000 -0.0415730000000 1.0  -0.02
Fe     4 -0.2279080000000  0.3467130000000 -0.0415730000000 1.0  -0.02
END
