TITL LFSO-Li4Fe2S2O3-200911-101824-4aa49f -0.0221 173.252714 -4.44779047E+003 8.35988 8.52046 11 (Cmm2) n - 1
REM
REM Run started: Fri, 11 Sep 2020 11:24:30 +0100 in /lustre/scratch/uccabz1/launch_tmp/launcher_2020-09-11-09-18-22-945797
REM CASTEP 20.1 from code version af48c487+ pr-geom-scf-spinfix Tue Jun 2 15:39:59 2020 +0100
REM Functional Perdew Burke Ernzerhof Relativity Koelling-Harmon Dispersion off
REM Cut-off 340.0000 eV Grid scale 1.7500 Gmax 16.5316 1/A FBSC none
REM MP grid 3 3 4 Offset 0.000 0.000 0.000 No. kpts 12 Spacing 0.07
REM Total runtime: 4121.6 s
REM Overall efficiency: 94.625 %
REM
REM
REM
REM compiler GCC version 4.9.2
REM options -cpp -iprefix /lustre/shared/ucl/apps/gcc/4.9.2/bin/../lib/gcc/x86_64-unknown-linux-gnu/4.9.2/ -mtune=corei7 -march=x86-64 -g -Og
REM COMMAND_LINE
REM seed 432224662 -1959237299 1669953366 1124626507 171734381 714936945 -1634577803 1108336818 679467012 -234692388 1238799918 -1251051129
REM
REM S 3|1.8|5|6|7|30:31:32(qc=5)
REM O 2|1.5|12|13|15|20:21(qc=5)
REM Li 1|1.3|8|9|10|10U:20(qc=5)
REM Fe 3|2.2|2.0|1.0|8|9|10|40:41:32(qc=5)
REM 
CELL 1.54180    6.05262    6.07027    5.60786  122.76738   90.00000   90.00000
LATT -1
SFAC Li O  S  Fe 
Li     1  0.4243400000000 -0.4139100000000 -0.2679180000000 1.0   0.02
Li     1  0.4243400000000  0.4139100000000  0.2679180000000 1.0   0.02
Li     1  0.4243400000000  0.1459920000000 -0.2679180000000 1.0   0.02
Li     1  0.4243400000000 -0.1459920000000  0.2679180000000 1.0   0.02
O      2 -0.4824270000000 -0.2134510000000 -0.4269030000000 1.0   0.35
O      2 -0.4824270000000  0.2134510000000  0.4269030000000 1.0   0.35
O      2 -0.3963470000000  0.5000000000000  0.0000000000000 1.0   0.24
S      3  0.0403100000000  0.0000000000000 -0.5000000000000 1.0   0.16
S      3  0.0403100000000  0.5000000000000  0.5000000000000 1.0   0.16
Fe     4 -0.2186580000000  0.3110090000000 -0.3779820000000 1.0   3.51
Fe     4 -0.2186580000000 -0.3110090000000  0.3779820000000 1.0   3.51
END
