TITL LFSO-LiFe3S3O2-200909-122414-11842e 0.0506 312.463379 -9.15425039E+003 -16.3512 16.8685 18 (P42) n - 1
REM
REM Run started: Wed, 09 Sep 2020 21:22:39 +0100 in /lustre/scratch/uccabz1/launch_tmp/launcher_2020-09-09-11-24-12-562372
REM CASTEP 20.1 from code version af48c487+ pr-geom-scf-spinfix Tue Jun 2 15:39:59 2020 +0100
REM Functional Perdew Burke Ernzerhof Relativity Koelling-Harmon Dispersion off
REM Cut-off 340.0000 eV Grid scale 1.7500 Gmax 16.5316 1/A FBSC none
REM MP grid 3 3 2 Offset 0.000 0.000 0.000 No. kpts 3 Spacing 0.07
REM Total runtime: 32393.8 s
REM Overall efficiency: 96.9167 %
REM
REM
REM
REM compiler GCC version 4.9.2
REM options -cpp -iprefix /lustre/shared/ucl/apps/gcc/4.9.2/bin/../lib/gcc/x86_64-unknown-linux-gnu/4.9.2/ -mtune=corei7 -march=x86-64 -g -Og
REM COMMAND_LINE
REM seed 1608988413 1359230822 -193928976 -1016988180 217343358 1040085304 123529458 1328537880 -1828268116 111311147 1509978954 -1160940063
REM
REM S 3|1.8|5|6|7|30:31:32(qc=5)
REM O 2|1.5|12|13|15|20:21(qc=5)
REM Li 1|1.3|8|9|10|10U:20(qc=5)
REM Fe 3|2.2|2.0|1.0|8|9|10|40:41:32(qc=5)
REM 
CELL 1.54180    5.12685    5.12685   11.88772   90.00000   90.00000   90.00000
LATT -1
SFAC Li O  S  Fe 
Li     1  0.0000000000000  0.0000000000000 -0.0396920000000 1.0  -0.01
Li     1  0.0000000000000  0.0000000000000 -0.5396920000000 1.0  -0.01
O      2 -0.2211890000000  0.3087140000000  0.5113060000000 1.0  -0.24
O      2  0.2211890000000 -0.3087140000000  0.5113060000000 1.0  -0.24
O      2  0.3087140000000  0.2211890000000  0.0113060000000 1.0  -0.24
O      2 -0.3087140000000 -0.2211890000000  0.0113060000000 1.0  -0.24
S      3 -0.1557600000000  0.3609150000000 -0.1683380000000 1.0  -0.02
S      3  0.1557600000000 -0.3609150000000 -0.1683380000000 1.0  -0.02
S      3  0.3609150000000  0.1557600000000  0.3316620000000 1.0  -0.02
S      3 -0.3609150000000 -0.1557600000000  0.3316620000000 1.0  -0.02
S      3  0.0000000000000 -0.5000000000000  0.2062090000000 1.0  -0.20
S      3 -0.5000000000000  0.0000000000000 -0.2937910000000 1.0  -0.20
Fe     4 -0.3129700000000  0.3465970000000 -0.3449500000000 1.0  -2.26
Fe     4  0.3129700000000 -0.3465970000000 -0.3449500000000 1.0  -2.26
Fe     4  0.3465970000000  0.3129700000000  0.1550500000000 1.0  -2.26
Fe     4 -0.3465970000000 -0.3129700000000  0.1550500000000 1.0  -2.26
Fe     4  0.5000000000000 -0.5000000000000 -0.0402090000000 1.0  -2.93
Fe     4 -0.5000000000000  0.5000000000000  0.4597910000000 1.0  -2.93
END
