TITL LFSO-Li4Fe2S2O3-200911-074448-efeb58 0.0552 207.098493 -4.44624214E+003 6.01450 6.65524 11 (P2/m) n - 1
REM
REM Run started: Fri, 11 Sep 2020 12:11:06 +0100 in /lustre/scratch/uccabz1/launch_tmp/launcher_2020-09-11-06-44-46-659901
REM CASTEP 20.1 from code version af48c487+ pr-geom-scf-spinfix Tue Jun 2 15:39:59 2020 +0100
REM Functional Perdew Burke Ernzerhof Relativity Koelling-Harmon Dispersion off
REM Cut-off 340.0000 eV Grid scale 1.7500 Gmax 16.5316 1/A FBSC none
REM MP grid 5 3 2 Offset 0.000 0.000 0.000 No. kpts 10 Spacing 0.07
REM Total runtime: 18148.2 s
REM Overall efficiency: 79.3333 %
REM
REM
REM
REM compiler GCC version 4.9.2
REM options -cpp -iprefix /lustre/shared/ucl/apps/gcc/4.9.2/bin/../lib/gcc/x86_64-unknown-linux-gnu/4.9.2/ -mtune=corei7 -march=x86-64 -g -Og
REM COMMAND_LINE
REM seed -1360699236 1129378011 -1198829377 249644974 -1071087577 558839925 -864440912 626401352 -1764343945 1444076500 1976955676 -805708316
REM
REM S 3|1.8|5|6|7|30:31:32(qc=5)
REM O 2|1.5|12|13|15|20:21(qc=5)
REM Li 1|1.3|8|9|10|10U:20(qc=5)
REM Fe 3|2.2|2.0|1.0|8|9|10|40:41:32(qc=5)
REM 
CELL 1.54180    3.03198    7.27298    9.43125   90.00000   95.25801   90.00000
LATT -1
SFAC Li O  S  Fe 
Li     1 -0.3430030000000  0.3468000000000  0.3704160000000 1.0  -0.03
Li     1  0.3430030000000  0.3468000000000 -0.3704160000000 1.0  -0.03
Li     1  0.3430030000000 -0.3468000000000 -0.3704160000000 1.0  -0.03
Li     1 -0.3430030000000 -0.3468000000000  0.3704160000000 1.0  -0.03
O      2  0.1523060000000 -0.5000000000000  0.3791730000000 1.0   0.53
O      2 -0.1523060000000 -0.5000000000000 -0.3791730000000 1.0   0.53
O      2 -0.5000000000000  0.0000000000000  0.0000000000000 1.0   0.21
S      3  0.4171720000000  0.0000000000000 -0.3081450000000 1.0  -0.05
S      3 -0.4171720000000  0.0000000000000  0.3081450000000 1.0  -0.05
Fe     4  0.0344490000000  0.0000000000000  0.1378790000000 1.0   2.48
Fe     4 -0.0344490000000  0.0000000000000 -0.1378790000000 1.0   2.48
END
