TITL LFSO-Li6FeS2O2-200920-220704-5a9acc -0.1135 141.215038 -3.54744107E+003 4.00000 4.08014 11 (P-1) n - 1
REM
REM Run started: Mon, 21 Sep 2020 01:01:21 +0100 in /lustre/scratch/uccabz1/launch_tmp/launcher_2020-09-20-21-07-02-963989
REM CASTEP 20.1 from code version af48c487+ pr-geom-scf-spinfix Tue Jun 2 15:39:59 2020 +0100
REM Functional Perdew Burke Ernzerhof Relativity Koelling-Harmon Dispersion off
REM Cut-off 340.0000 eV Grid scale 1.7500 Gmax 16.5316 1/A FBSC none
REM MP grid 5 3 3 Offset 0.000 0.000 0.000 No. kpts 23 Spacing 0.07
REM Total runtime: 11610.3 s
REM Overall efficiency: 96.1667 %
REM
REM
REM
REM compiler GCC version 4.9.2
REM options -cpp -iprefix /lustre/shared/ucl/apps/gcc/4.9.2/bin/../lib/gcc/x86_64-unknown-linux-gnu/4.9.2/ -mtune=corei7 -march=x86-64 -g -Og
REM COMMAND_LINE
REM seed -397443546 -1610085071 -76515883 -509140041 -1245912396 -1509301900 -664064615 -1866972390 -1968589458 -991003659 -827331270 2007831305
REM
REM S 3|1.8|5|6|7|30:31:32(qc=5)
REM O 2|1.5|12|13|15|20:21(qc=5)
REM Li 1|1.3|8|9|10|10U:20(qc=5)
REM Fe 3|2.2|2.0|1.0|8|9|10|40:41:32(qc=5)
REM 
CELL 1.54180    3.84247    7.35542    7.01924   60.39722  115.23545   82.88426
LATT -1
SFAC Li O  S  Fe 
Li     1  0.1591280000000 -0.3205410000000  0.4153570000000 1.0   0.02
Li     1 -0.1591280000000  0.3205410000000 -0.4153570000000 1.0   0.02
Li     1  0.3699870000000 -0.0255440000000  0.1468970000000 1.0  -0.04
Li     1 -0.3699870000000  0.0255440000000 -0.1468970000000 1.0  -0.04
Li     1  0.2751630000000 -0.3558080000000  0.0163100000000 1.0  -0.00
Li     1 -0.2751630000000  0.3558080000000 -0.0163100000000 1.0  -0.00
O      2  0.1216680000000 -0.0260060000000 -0.1868350000000 1.0   0.13
O      2 -0.1216680000000  0.0260060000000  0.1868350000000 1.0   0.13
S      3  0.1021370000000 -0.5957110000000  0.3206940000000 1.0   0.09
S      3 -0.1021370000000  0.5957110000000 -0.3206940000000 1.0   0.09
Fe     4  0.0000000000000  0.0000000000000  0.5000000000000 1.0   3.62
END
