TITL LFSO-Li3Fe3S4O2-200929-182215-37c0fd -0.0584 152.621713 -5.28321415E+003 3.01090 3.41863 12 (P3) n - 1
REM
REM Run started: Tue, 29 Sep 2020 19:15:38 +0100 in /lustre/scratch/uccabz1/launch_tmp/launcher_2020-09-29-17-22-13-841817
REM CASTEP 20.1 from code version af48c487+ pr-geom-scf-spinfix Tue Jun 2 15:39:59 2020 +0100
REM Functional Perdew Burke Ernzerhof Relativity Koelling-Harmon Dispersion off
REM Cut-off 340.0000 eV Grid scale 1.7500 Gmax 16.5316 1/A FBSC none
REM MP grid 3 3 3 Offset 0.000 0.000 0.000 No. kpts 8 Spacing 0.07
REM Total runtime: 3234.59 s
REM Overall efficiency: 86.1429 %
REM
REM
REM
REM compiler GCC version 4.9.2
REM options -cpp -iprefix /lustre/shared/ucl/apps/gcc/4.9.2/bin/../lib/gcc/x86_64-unknown-linux-gnu/4.9.2/ -mtune=corei7 -march=x86-64 -g -Og
REM COMMAND_LINE
REM seed 140149979 1290212466 1470236058 1278214575 -1147548246 864252313 -376721783 184264581 123341026 510325453 824753973 1655498105
REM
REM S 3|1.8|5|6|7|30:31:32(qc=5)
REM O 2|1.5|12|13|15|20:21(qc=5)
REM Li 1|1.3|8|9|10|10U:20(qc=5)
REM Fe 3|2.2|2.0|1.0|8|9|10|40:41:32(qc=5)
REM 
CELL 1.54180    5.52128    5.52128    5.78103   90.00000   90.00000  120.00000
LATT -1
SFAC Li O  S  Fe 
Li     1 -0.4002120000000 -0.4034590000000 -0.2334670000000 1.0  -0.00
Li     1 -0.0032470000000  0.4002120000000 -0.2334670000000 1.0  -0.00
Li     1  0.4034590000000  0.0032470000000 -0.2334670000000 1.0  -0.00
O      2 -0.3333330000000  0.3333330000000 -0.0023220000000 1.0   0.02
O      2  0.3333330000000 -0.3333330000000 -0.0194180000000 1.0   0.12
S      3 -0.3150370000000  0.0139940000000  0.4111130000000 1.0  -0.03
S      3  0.3290310000000  0.3150370000000  0.4111130000000 1.0  -0.03
S      3 -0.0139940000000 -0.3290310000000  0.4111130000000 1.0  -0.03
S      3  0.0000000000000 -0.0000000000000 -0.0255470000000 1.0  -0.00
Fe     4 -0.3653380000000 -0.3413130000000  0.1999390000000 1.0   1.00
Fe     4  0.0240250000000  0.3653380000000  0.1999390000000 1.0   1.00
Fe     4  0.3413130000000 -0.0240250000000  0.1999390000000 1.0   1.00
END
