TITL LFSO-Li3Fe3S4O2-200929-210134-1b8e74 0.3974 398.562993 -1.05638164E+004 -17.6084 18.3709 24 (R3) n - 1
REM
REM Run started: Wed, 30 Sep 2020 10:46:27 +0100 in /lustre/scratch/uccabz1/launch_tmp/launcher_2020-09-30-08-57-54-218933
REM CASTEP 20.1 from code version af48c487+ pr-geom-scf-spinfix Tue Jun 2 15:39:59 2020 +0100
REM Functional Perdew Burke Ernzerhof Relativity Koelling-Harmon Dispersion off
REM Cut-off 340.0000 eV Grid scale 1.7500 Gmax 16.5316 1/A FBSC none
REM MP grid 3 3 3 Offset 0.000 0.000 0.000 No. kpts 6 Spacing 0.07
REM Total runtime: 39877.4 s
REM Overall efficiency: 95.0833 %
REM
REM
REM
REM compiler GCC version 4.9.2
REM options -cpp -iprefix /scratch/UCL/applications/gcc/4.9.2/bin/../lib/gcc/x86_64-unknown-linux-gnu/4.9.2/ -mtune=corei7 -march=x86-64 -g -O2
REM COMMAND_LINE
REM seed -809159893 264062267 -1769843930 -1328264041 -2105816868 399561482 223313628 913428018 450401218 1739589091 4025084 1067734638
REM
REM S 3|1.8|5|6|7|30:31:32(qc=5)
REM O 2|1.5|12|13|15|20:21(qc=5)
REM Li 1|1.3|8|9|10|10U:20(qc=5)
REM Fe 3|2.2|2.0|1.0|8|9|10|40:41:32(qc=5)
REM 
CELL 1.54180    7.62659    7.62659    7.62659   73.66835   73.66835   73.66835
LATT -1
SFAC Li O  S  Fe 
Li     1  0.4294590000000  0.3452610000000 -0.3254530000000 1.0   0.00
Li     1 -0.3254530000000  0.4294590000000  0.3452610000000 1.0   0.00
Li     1  0.3452610000000 -0.3254530000000  0.4294590000000 1.0   0.00
Li     1 -0.2654380000000  0.2163160000000 -0.0733560000000 1.0  -0.02
Li     1 -0.0733560000000 -0.2654380000000  0.2163160000000 1.0  -0.02
Li     1  0.2163160000000 -0.0733560000000 -0.2654380000000 1.0  -0.02
O      2 -0.3451690000000  0.2227840000000 -0.4499440000000 1.0  -0.34
O      2 -0.4499440000000 -0.3451690000000  0.2227840000000 1.0  -0.34
O      2  0.2227840000000 -0.4499440000000 -0.3451690000000 1.0  -0.34
O      2 -0.2729580000000 -0.2729580000000 -0.2729580000000 1.0  -0.06
S      3 -0.0683950000000  0.3800210000000  0.0685450000000 1.0  -0.26
S      3  0.0685450000000 -0.0683950000000  0.3800210000000 1.0  -0.26
S      3  0.3800210000000  0.0685450000000 -0.0683950000000 1.0  -0.26
S      3 -0.0871920000000  0.4665170000000 -0.4831580000000 1.0  -0.08
S      3 -0.4831580000000 -0.0871920000000  0.4665170000000 1.0  -0.08
S      3  0.4665170000000 -0.4831580000000 -0.0871920000000 1.0  -0.08
S      3 -0.1071780000000 -0.1071780000000 -0.1071780000000 1.0  -0.06
S      3  0.3009950000000  0.3009950000000  0.3009950000000 1.0   0.08
Fe     4  0.2510320000000  0.3506520000000  0.0262780000000 1.0  -2.48
Fe     4  0.0262780000000  0.2510320000000  0.3506520000000 1.0  -2.48
Fe     4  0.3506520000000  0.0262780000000  0.2510320000000 1.0  -2.48
Fe     4 -0.3438950000000 -0.3363920000000 -0.0094410000000 1.0  -2.68
Fe     4 -0.0094410000000 -0.3438950000000 -0.3363920000000 1.0  -2.68
Fe     4 -0.3363920000000 -0.0094410000000 -0.3438950000000 1.0  -2.68
END
