TITL LFSO-Li4Fe2S3O2-200911-061354-774f40 0.2413 454.819719 -8.62870399E+003 15.9852 16.4304 22 (Cc) n - 1
REM
REM Run started: Sat, 12 Sep 2020 13:12:12 +0100 in /lustre/scratch/uccabz1/launch_tmp/launcher_2020-09-12-10-39-44-897508
REM CASTEP 20.1 from code version af48c487+ pr-geom-scf-spinfix Tue Jun 2 15:39:59 2020 +0100
REM Functional Perdew Burke Ernzerhof Relativity Koelling-Harmon Dispersion off
REM Cut-off 340.0000 eV Grid scale 1.7500 Gmax 16.5316 1/A FBSC none
REM MP grid 3 3 3 Offset 0.000 0.000 0.000 No. kpts 10 Spacing 0.07
REM Total runtime: 109283 s
REM Overall efficiency: 75.5833 %
REM
REM
REM
REM compiler GCC version 4.9.2
REM options -cpp -iprefix /lustre/shared/ucl/apps/gcc/4.9.2/bin/../lib/gcc/x86_64-unknown-linux-gnu/4.9.2/ -mtune=corei7 -march=x86-64 -g -Og
REM COMMAND_LINE
REM seed 1486564643 1011344832 -1119383500 -1234931590 673176747 306109549 500276557 22433306 -2018435152 1628315961 1914276423 -101430217
REM
REM S 3|1.8|5|6|7|30:31:32(qc=5)
REM O 2|1.5|12|13|15|20:21(qc=5)
REM Li 1|1.3|8|9|10|10U:20(qc=5)
REM Fe 3|2.2|2.0|1.0|8|9|10|40:41:32(qc=5)
REM 
CELL 1.54180   10.46648   10.46648    7.72605   81.16036  127.61713  131.51897
LATT -1
SFAC Li O  S  Fe 
Li     1 -0.2323500000000  0.1880350000000 -0.3333060000000 1.0  -0.02
Li     1 -0.0213410000000 -0.1009560000000  0.1666940000000 1.0  -0.02
Li     1  0.0999580000000  0.5209680000000  0.2723580000000 1.0   0.03
Li     1  0.2513900000000  0.1723990000000 -0.2276420000000 1.0   0.03
Li     1 -0.4531160000000  0.4589950000000 -0.4066530000000 1.0   0.01
Li     1 -0.3656480000000  0.0464630000000  0.0933470000000 1.0   0.01
Li     1  0.0994450000000 -0.4204510000000 -0.2748680000000 1.0   0.00
Li     1 -0.3544170000000 -0.3743130000000  0.2251320000000 1.0   0.00
O      2 -0.4745320000000 -0.5505210000000  0.3346110000000 1.0   0.35
O      2  0.3851320000000 -0.1908570000000 -0.1653890000000 1.0   0.35
O      2  0.3485100000000 -0.2164420000000 -0.5210290000000 1.0   0.41
O      2  0.1954130000000  0.1304620000000 -0.0210290000000 1.0   0.41
S      3 -0.1003320000000  0.0836870000000  0.0637790000000 1.0   0.21
S      3  0.4800920000000  0.1641110000000  0.5637790000000 1.0   0.21
S      3 -0.4625920000000 -0.4314230000000 -0.1608710000000 1.0   0.25
S      3 -0.2294480000000  0.3017210000000  0.3391290000000 1.0   0.25
S      3  0.1835780000000  0.4873680000000  0.0516370000000 1.0   0.20
S      3  0.0642690000000 -0.1319410000000 -0.4483630000000 1.0   0.20
Fe     4  0.5248540000000 -0.2173300000000 -0.2234750000000 1.0   3.78
Fe     4 -0.5061450000000  0.2516710000000  0.2765250000000 1.0   3.78
Fe     4  0.1992340000000  0.2883870000000  0.0771580000000 1.0   2.78
Fe     4  0.2887720000000 -0.1220760000000 -0.4228420000000 1.0   2.78
END
