TITL LFSO-Li5FeSO3-200910-062704-443d56 -0.0799 350.745336 -6.96138343E+003 8.00001 8.39506 20 (P-1) n - 1
REM
REM Run started: Thu, 10 Sep 2020 18:58:26 +0100 in /lustre/scratch/uccabz1/launch_tmp/launcher_2020-09-10-05-27-02-074127
REM CASTEP 20.1 from code version af48c487+ pr-geom-scf-spinfix Tue Jun 2 15:39:59 2020 +0100
REM Functional Perdew Burke Ernzerhof Relativity Koelling-Harmon Dispersion off
REM Cut-off 340.0000 eV Grid scale 1.7500 Gmax 16.5316 1/A FBSC none
REM MP grid 3 3 3 Offset 0.000 0.000 0.000 No. kpts 14 Spacing 0.07
REM Total runtime: 52414.5 s
REM Overall efficiency: 98.25 %
REM
REM
REM
REM compiler GCC version 4.9.2
REM options -cpp -iprefix /lustre/shared/ucl/apps/gcc/4.9.2/bin/../lib/gcc/x86_64-unknown-linux-gnu/4.9.2/ -mtune=corei7 -march=x86-64 -g -Og
REM COMMAND_LINE
REM seed 1088472895 -1251836261 -378563722 1281904272 1836706487 -1433521229 2104839846 -1057324455 -674909466 -239438093 -18080434 -97749455
REM
REM S 3|1.8|5|6|7|30:31:32(qc=5)
REM O 2|1.5|12|13|15|20:21(qc=5)
REM Li 1|1.3|8|9|10|10U:20(qc=5)
REM Fe 3|2.2|2.0|1.0|8|9|10|40:41:32(qc=5)
REM 
CELL 1.54180   13.02621    6.00270    9.25665   69.50075  144.68602  121.82343
LATT -1
SFAC Li O  S  Fe 
Li     1 -0.1561200000000 -0.3479480000000 -0.1482080000000 1.0  -0.03
Li     1  0.1561200000000  0.3479480000000  0.1482080000000 1.0  -0.03
Li     1  0.0660570000000  0.3951210000000  0.3462860000000 1.0   0.00
Li     1 -0.0660570000000 -0.3951210000000 -0.3462860000000 1.0   0.00
Li     1  0.1751790000000  0.0906480000000 -0.3077170000000 1.0  -0.05
Li     1 -0.1751790000000 -0.0906480000000  0.3077170000000 1.0  -0.05
Li     1 -0.4358720000000 -0.2366370000000  0.2863290000000 1.0  -0.03
Li     1  0.4358720000000  0.2366370000000 -0.2863290000000 1.0  -0.03
Li     1  0.1651880000000  0.5920990000000 -0.2709800000000 1.0   0.00
Li     1 -0.1651880000000 -0.5920990000000  0.2709800000000 1.0   0.00
O      2 -0.1977330000000 -0.2474460000000 -0.4007310000000 1.0   0.17
O      2  0.1977330000000  0.2474460000000  0.4007310000000 1.0   0.17
O      2  0.1017200000000  0.4285500000000 -0.1117050000000 1.0   0.21
O      2 -0.1017200000000 -0.4285500000000  0.1117050000000 1.0   0.21
O      2 -0.0103990000000 -0.2436450000000  0.4752640000000 1.0   0.23
O      2  0.0103990000000  0.2436450000000 -0.4752640000000 1.0   0.23
S      3 -0.4913220000000  0.1395370000000  0.0629150000000 1.0   0.00
S      3  0.4913220000000 -0.1395370000000 -0.0629150000000 1.0   0.00
Fe     4 -0.0333720000000  0.1188130000000 -0.3025870000000 1.0   3.49
Fe     4  0.0333720000000 -0.1188130000000  0.3025870000000 1.0   3.49
END
