TITL LFSO-Li2Fe4S4O-200911-222946-f6b98f -0.0120 172.423851 -5.50626196E+003 13.1848 13.3676 11 (F222) n - 1
REM
REM Run started: Sat, 12 Sep 2020 03:43:20 +0100 in /lustre/scratch/uccabz1/launch_tmp/launcher_2020-09-11-21-29-44-763928
REM CASTEP 20.1 from code version af48c487+ pr-geom-scf-spinfix Tue Jun 2 15:39:59 2020 +0100
REM Functional Perdew Burke Ernzerhof Relativity Koelling-Harmon Dispersion off
REM Cut-off 340.0000 eV Grid scale 1.7500 Gmax 16.5316 1/A FBSC none
REM MP grid 4 4 5 Offset 0.000 0.000 0.000 No. kpts 26 Spacing 0.07
REM Total runtime: 19004.3 s
REM Overall efficiency: 96.6667 %
REM
REM
REM
REM compiler GCC version 4.9.2
REM options -cpp -iprefix /lustre/shared/ucl/apps/gcc/4.9.2/bin/../lib/gcc/x86_64-unknown-linux-gnu/4.9.2/ -mtune=corei7 -march=x86-64 -g -Og
REM COMMAND_LINE
REM seed -603701328 449110768 -335497576 965159525 -1378646689 -847244785 1312519587 -798932012 -438293094 -1858144715 562992449 1818403436
REM
REM S 3|1.8|5|6|7|30:31:32(qc=5)
REM O 2|1.5|12|13|15|20:21(qc=5)
REM Li 1|1.3|8|9|10|10U:20(qc=5)
REM Fe 3|2.2|2.0|1.0|8|9|10|40:41:32(qc=5)
REM 
CELL 1.54180    7.57871    7.57871    5.95907  125.83723  125.83723   94.54701
LATT -1
SFAC Li O  S  Fe 
Li     1 -0.1966690000000 -0.1966690000000  0.6066620000000 1.0  -0.01
Li     1  0.1966690000000  0.1966690000000 -0.6066620000000 1.0  -0.01
O      2  0.5000000000000  0.5000000000000  0.0000000000000 1.0   0.17
S      3  0.0289650000000  0.3104600000000  0.0396990000000 1.0   0.15
S      3 -0.3104600000000 -0.0289650000000 -0.0396990000000 1.0   0.15
S      3  0.0107340000000 -0.2707610000000  0.0396990000000 1.0   0.15
S      3  0.2707610000000 -0.0107340000000 -0.0396990000000 1.0   0.15
Fe     4  0.3072820000000 -0.3716870000000  0.1857030000000 1.0   3.11
Fe     4  0.3716870000000 -0.3072820000000 -0.1857030000000 1.0   3.11
Fe     4 -0.1215790000000  0.5573900000000  0.1857030000000 1.0   3.11
Fe     4 -0.5573900000000  0.1215790000000 -0.1857030000000 1.0   3.11
END
