TITL LFSO-Li3Fe3S4O2-200929-202609-ce41bb -0.1148 471.615812 -1.05625946E+004 -20.1542 20.8833 24 (C2221) n - 1
REM
REM Run started: Wed, 30 Sep 2020 10:01:08 +0100 in /lustre/scratch/uccabz1/launch_tmp/launcher_2020-09-30-08-31-26-483979
REM CASTEP 20.1 from code version af48c487+ pr-geom-scf-spinfix Tue Jun 2 15:39:59 2020 +0100
REM Functional Perdew Burke Ernzerhof Relativity Koelling-Harmon Dispersion off
REM Cut-off 340.0000 eV Grid scale 1.7500 Gmax 16.5316 1/A FBSC none
REM MP grid 3 3 1 Offset 0.000 0.000 0.000 No. kpts 4 Spacing 0.07
REM Total runtime: 45413.1 s
REM Overall efficiency: 91.7 %
REM
REM
REM
REM compiler GCC version 4.9.2
REM options -cpp -iprefix /lustre/shared/ucl/apps/gcc/4.9.2/bin/../lib/gcc/x86_64-unknown-linux-gnu/4.9.2/ -mtune=corei7 -march=x86-64 -g -Og
REM COMMAND_LINE
REM seed 881336728 455791366 1815747154 -2006166453 2038927420 -1521570210 320934626 243613921 -637248868 -565093584 -1457541030 -1465812156
REM
REM S 3|1.8|5|6|7|30:31:32(qc=5)
REM O 2|1.5|12|13|15|20:21(qc=5)
REM Li 1|1.3|8|9|10|10U:20(qc=5)
REM Fe 3|2.2|2.0|1.0|8|9|10|40:41:32(qc=5)
REM 
CELL 1.54180    6.16339    6.16339   15.08185   90.00000   90.00000  124.59575
LATT -1
SFAC Li O  S  Fe 
Li     1  0.1839070000000 -0.5134070000000  0.4276260000000 1.0  -0.06
Li     1 -0.1839070000000  0.5134070000000 -0.0723740000000 1.0  -0.06
Li     1  0.5134070000000 -0.1839070000000  0.0723740000000 1.0  -0.06
Li     1 -0.5134070000000  0.1839070000000 -0.4276260000000 1.0  -0.06
Li     1  0.0843980000000 -0.0843980000000 -0.2500000000000 1.0   0.00
Li     1 -0.0843980000000  0.0843980000000  0.2500000000000 1.0   0.00
O      2 -0.3015900000000 -0.2297700000000  0.1743230000000 1.0  -0.25
O      2  0.3015900000000  0.2297700000000 -0.3256770000000 1.0  -0.25
O      2  0.2297700000000  0.3015900000000  0.3256770000000 1.0  -0.25
O      2 -0.2297700000000 -0.3015900000000 -0.1743230000000 1.0  -0.25
S      3 -0.0920410000000 -0.4829360000000 -0.3438080000000 1.0  -0.16
S      3  0.0920410000000  0.4829360000000  0.1561920000000 1.0  -0.16
S      3  0.4829360000000  0.0920410000000 -0.1561920000000 1.0  -0.16
S      3 -0.4829360000000 -0.0920410000000  0.3438080000000 1.0  -0.16
S      3  0.4671410000000 -0.2354040000000 -0.4303970000000 1.0  -0.32
S      3 -0.4671410000000  0.2354040000000  0.0696030000000 1.0  -0.32
S      3  0.2354040000000 -0.4671410000000 -0.0696030000000 1.0  -0.32
S      3 -0.2354040000000  0.4671410000000  0.4303970000000 1.0  -0.32
Fe     4  0.2522780000000 -0.4964270000000 -0.3253560000000 1.0  -2.89
Fe     4 -0.2522780000000  0.4964270000000  0.1746440000000 1.0  -2.89
Fe     4  0.4964270000000 -0.2522780000000 -0.1746440000000 1.0  -2.89
Fe     4 -0.4964270000000  0.2522780000000  0.3253560000000 1.0  -2.89
Fe     4 -0.4159540000000  0.4159540000000 -0.2500000000000 1.0  -2.72
Fe     4  0.4159540000000 -0.4159540000000  0.2500000000000 1.0  -2.72
END
