TITL LFSO-Li2Fe4S3O2-200912-043723-6a5bc1 0.9508 318.162767 -1.12815483E+004 3.94271 16.0062 22 (R3) n - 1
REM
REM Run started: Mon, 14 Sep 2020 05:09:23 +0100 in /lustre/scratch/uccabz1/launch_tmp/launcher_2020-09-14-03-34-48-982938
REM CASTEP 20.1 from code version af48c487+ pr-geom-scf-spinfix Tue Jun 2 15:39:59 2020 +0100
REM Functional Perdew Burke Ernzerhof Relativity Koelling-Harmon Dispersion off
REM Cut-off 340.0000 eV Grid scale 1.7500 Gmax 16.5316 1/A FBSC none
REM MP grid 3 3 3 Offset 0.000 0.000 0.000 No. kpts 6 Spacing 0.07
REM Total runtime: 164800 s
REM Overall efficiency: 88.75 %
REM
REM
REM
REM compiler GCC version 4.9.2
REM options -cpp -iprefix /lustre/shared/ucl/apps/gcc/4.9.2/bin/../lib/gcc/x86_64-unknown-linux-gnu/4.9.2/ -mtune=corei7 -march=x86-64 -g -Og
REM COMMAND_LINE
REM seed 475671679 1402182889 1027971839 -27111504 -1982164074 1025320373 -1837534549 -380543242 698613160 286201886 187503650 2013729121
REM
REM S 3|1.8|5|6|7|30:31:32(qc=5)
REM O 2|1.5|12|13|15|20:21(qc=5)
REM Li 1|1.3|8|9|10|10U:20(qc=5)
REM Fe 3|2.2|2.0|1.0|8|9|10|40:41:32(qc=5)
REM 
CELL 1.54180    7.54088    7.54088    7.79068   61.05511   61.05511   60.00000
LATT -1
SFAC Li O  S  Fe 
Li     1  0.5251820000000  0.2356620000000 -0.4359800000000 1.0  -0.01
Li     1 -0.3248640000000  0.5251820000000 -0.4359800000000 1.0  -0.01
Li     1  0.2356620000000 -0.3248640000000 -0.4359800000000 1.0  -0.01
Li     1  0.0945920000000  0.0945920000000 -0.2837770000000 1.0   0.02
O      2 -0.4354370000000  0.4150530000000  0.1690270000000 1.0   0.07
O      2 -0.1486440000000 -0.4354370000000  0.1690270000000 1.0   0.07
O      2  0.4150530000000 -0.1486440000000  0.1690270000000 1.0   0.07
O      2  0.4101360000000  0.4101360000000 -0.2304090000000 1.0  -0.06
S      3 -0.0264160000000  0.0564750000000 -0.5300030000000 1.0   0.08
S      3  0.4999440000000 -0.0264160000000 -0.5300030000000 1.0   0.08
S      3  0.0564750000000  0.4999440000000 -0.5300030000000 1.0   0.08
S      3  0.0601780000000  0.2482550000000 -0.0506480000000 1.0   0.03
S      3 -0.2577850000000  0.0601780000000 -0.0506480000000 1.0   0.03
S      3  0.2482550000000 -0.2577850000000 -0.0506480000000 1.0   0.03
Fe     4  0.4684420000000  0.4025270000000  0.0108570000000 1.0  -1.78
Fe     4  0.1181740000000  0.4684420000000  0.0108570000000 1.0  -1.78
Fe     4  0.4025270000000  0.1181740000000  0.0108570000000 1.0  -1.78
Fe     4 -0.0831590000000 -0.2334730000000  0.1622570000000 1.0   2.00
Fe     4  0.1543750000000 -0.0831590000000  0.1622570000000 1.0   2.00
Fe     4 -0.2334730000000  0.1543750000000  0.1622570000000 1.0   2.00
Fe     4 -0.1521280000000 -0.1521280000000 -0.5436160000000 1.0   2.82
Fe     4  0.2257440000000  0.2257440000000  0.3227680000000 1.0  -0.01
END
