TITL LFSO-Li4Fe3S2O3-201001-123353-5b2d9c -0.0547 168.519271 -5.31136746E+003 8.20732 8.61812 12 (R3) n - 1
REM
REM Run started: Thu, 01 Oct 2020 13:54:00 +0100 in /lustre/scratch/uccabz1/launch_tmp/launcher_2020-10-01-11-33-51-515117
REM CASTEP 20.1 from code version af48c487+ pr-geom-scf-spinfix Tue Jun 2 15:39:59 2020 +0100
REM Functional Perdew Burke Ernzerhof Relativity Koelling-Harmon Dispersion off
REM Cut-off 340.0000 eV Grid scale 1.7500 Gmax 16.5316 1/A FBSC none
REM MP grid 3 3 3 Offset 0.000 0.000 0.000 No. kpts 6 Spacing 0.07
REM Total runtime: 4930.86 s
REM Overall efficiency: 92.3 %
REM
REM
REM
REM compiler GCC version 4.9.2
REM options -cpp -iprefix /lustre/shared/ucl/apps/gcc/4.9.2/bin/../lib/gcc/x86_64-unknown-linux-gnu/4.9.2/ -mtune=corei7 -march=x86-64 -g -Og
REM COMMAND_LINE
REM seed 1780123750 -613822574 -284159441 2133893382 1100718232 449261891 1054994240 1674607613 -352720056 -1408378193 139610924 1831464680
REM
REM S 3|1.8|5|6|7|30:31:32(qc=5)
REM O 2|1.5|12|13|15|20:21(qc=5)
REM Li 1|1.3|8|9|10|10U:20(qc=5)
REM Fe 3|2.2|2.0|1.0|8|9|10|40:41:32(qc=5)
REM 
CELL 1.54180    5.59466    5.59466    5.59466   80.41785   80.41785   80.41785
LATT -1
SFAC Li O  S  Fe 
Li     1  0.4490740000000 -0.0844310000000  0.0840520000000 1.0  -0.10
Li     1 -0.0844310000000  0.0840520000000  0.4490740000000 1.0  -0.10
Li     1  0.0840520000000  0.4490740000000 -0.0844310000000 1.0  -0.10
Li     1  0.4877940000000  0.4877940000000  0.4877940000000 1.0  -0.03
O      2 -0.5295290000000  0.2118540000000 -0.2198110000000 1.0   0.19
O      2  0.2118540000000 -0.2198110000000 -0.5295290000000 1.0   0.19
O      2 -0.2198110000000 -0.5295290000000  0.2118540000000 1.0   0.19
S      3 -0.2917720000000 -0.2917720000000 -0.2917720000000 1.0   0.08
S      3  0.2815800000000  0.2815800000000  0.2815800000000 1.0   0.04
Fe     4 -0.4013160000000 -0.6160120000000 -0.0142640000000 1.0   2.62
Fe     4 -0.6160120000000 -0.0142640000000 -0.4013160000000 1.0   2.62
Fe     4 -0.0142640000000 -0.4013160000000 -0.6160120000000 1.0   2.62
END
