TITL LFSO-Li6FeSO3-200909-230253-c06585 0.2491 552.752766 -7.35806957E+003 4.52687 5.65943 22 (Fmmm) n - 1
REM
REM Run started: Thu, 10 Sep 2020 15:58:38 +0100 in /lustre/scratch/uccabz1/launch_tmp/launcher_2020-09-10-13-16-11-429481
REM CASTEP 20.1 from code version af48c487+ pr-geom-scf-spinfix Tue Jun 2 15:39:59 2020 +0100
REM Functional Perdew Burke Ernzerhof Relativity Koelling-Harmon Dispersion off
REM Cut-off 340.0000 eV Grid scale 1.7500 Gmax 16.5316 1/A FBSC none
REM MP grid 3 3 3 Offset 0.000 0.000 0.000 No. kpts 8 Spacing 0.07
REM Total runtime: 50123.8 s
REM Overall efficiency: 98.1818 %
REM
REM
REM
REM compiler GCC version 4.9.2
REM options -cpp -iprefix /lustre/shared/ucl/apps/gcc/4.9.2/bin/../lib/gcc/x86_64-unknown-linux-gnu/4.9.2/ -mtune=corei7 -march=x86-64 -g -Og
REM COMMAND_LINE
REM seed -112876232 1401776803 -1148607637 -441181647 872941842 -913216346 -1097439739 2106903179 -1014491961 1882167914 1956514023 1069783846
REM
REM S 3|1.8|5|6|7|30:31:32(qc=5)
REM O 2|1.5|12|13|15|20:21(qc=5)
REM Li 1|1.3|8|9|10|10U:20(qc=5)
REM Fe 3|2.2|2.0|1.0|8|9|10|40:41:32(qc=5)
REM 
CELL 1.54180   16.79550   16.79550    6.58731   94.05939   94.05939  160.81651
LATT -1
SFAC Li O  S  Fe 
Li     1  0.1805910000000  0.5531470000000 -0.3817500000000 1.0  -0.04
Li     1 -0.0651030000000  0.5623400000000  0.3817500000000 1.0  -0.04
Li     1  0.5531470000000  0.1805910000000 -0.3817500000000 1.0  -0.04
Li     1  0.5623400000000 -0.0651030000000  0.3817500000000 1.0  -0.04
Li     1  0.0967510000000 -0.2337840000000 -0.2523820000000 1.0  -0.01
Li     1  0.0185970000000  0.3491320000000  0.2523820000000 1.0  -0.01
Li     1 -0.2337840000000  0.0967510000000 -0.2523820000000 1.0  -0.01
Li     1  0.3491320000000  0.0185970000000  0.2523820000000 1.0  -0.01
Li     1  0.2273260000000 -0.5340640000000 -0.4208220000000 1.0  -0.04
Li     1 -0.1132420000000 -0.3518520000000  0.4208220000000 1.0  -0.04
Li     1 -0.5340640000000  0.2273260000000 -0.4208220000000 1.0  -0.04
Li     1 -0.3518520000000 -0.1132420000000  0.4208220000000 1.0  -0.04
O      2  0.2094970000000 -0.0954690000000  0.4987780000000 1.0   0.00
O      2 -0.5942460000000 -0.2892810000000 -0.4987780000000 1.0   0.00
O      2 -0.0954690000000  0.2094970000000  0.4987780000000 1.0   0.00
O      2 -0.2892810000000 -0.5942460000000 -0.4987780000000 1.0   0.00
O      2 -0.1605290000000  0.2631410000000  0.0000000000000 1.0   0.08
O      2  0.2631410000000 -0.1605290000000  0.0000000000000 1.0   0.08
S      3  0.3531990000000 -0.2526480000000  0.0000000000000 1.0   0.03
S      3 -0.2526480000000  0.3531990000000  0.0000000000000 1.0   0.03
Fe     4  0.0506080000000 -0.4492050000000  0.0000000000000 1.0   2.34
Fe     4 -0.4492050000000  0.0506080000000  0.0000000000000 1.0   2.34
END
