TITL LFSO-Li2Fe3S2O2-200921-021748-579537 0.0523 234.297059 -8.94725905E+003 16.0110 16.5026 18 (I4) n - 1
REM
REM Run started: Mon, 21 Sep 2020 08:01:07 +0100 in /lustre/scratch/uccabz1/launch_tmp/launcher_2020-09-21-01-17-47-249019
REM CASTEP 20.1 from code version af48c487+ pr-geom-scf-spinfix Tue Jun 2 15:39:59 2020 +0100
REM Functional Perdew Burke Ernzerhof Relativity Koelling-Harmon Dispersion off
REM Cut-off 340.0000 eV Grid scale 1.7500 Gmax 16.5316 1/A FBSC none
REM MP grid 3 3 3 Offset 0.000 0.000 0.000 No. kpts 6 Spacing 0.07
REM Total runtime: 21698.2 s
REM Overall efficiency: 98.1429 %
REM
REM
REM
REM compiler GCC version 4.9.2
REM options -cpp -iprefix /lustre/shared/ucl/apps/gcc/4.9.2/bin/../lib/gcc/x86_64-unknown-linux-gnu/4.9.2/ -mtune=corei7 -march=x86-64 -g -Og
REM COMMAND_LINE
REM seed -1881920502 1803364666 -1606485473 270747596 -1351388661 -148190302 -414327626 766286786 756832573 -732304946 606237651 -1739541193
REM
REM S 3|1.8|5|6|7|30:31:32(qc=5)
REM O 2|1.5|12|13|15|20:21(qc=5)
REM Li 1|1.3|8|9|10|10U:20(qc=5)
REM Fe 3|2.2|2.0|1.0|8|9|10|40:41:32(qc=5)
REM 
CELL 1.54180    6.90908    6.90908    6.90908  127.67419  101.21053  101.21053
LATT -1
SFAC Li O  S  Fe 
Li     1 -0.0869860000000  0.5175430000000  0.2118550000000 1.0  -0.03
Li     1  0.0869870000000  0.2988410000000  0.6045300000000 1.0  -0.03
Li     1 -0.3056880000000  0.2118550000000  0.2988410000000 1.0  -0.03
Li     1  0.3056890000000  0.6045300000000  0.5175430000000 1.0  -0.03
O      2  0.2737570000000 -0.3239030000000 -0.1627040000000 1.0   0.11
O      2 -0.2737560000000 -0.4364610000000  0.4023410000000 1.0   0.11
O      2  0.1611990000000 -0.1627040000000 -0.4364610000000 1.0   0.11
O      2 -0.1611990000000  0.4023410000000 -0.3239030000000 1.0   0.11
S      3 -0.1800550000000 -0.1644850000000  0.1669980000000 1.0   0.03
S      3  0.1800550000000  0.3470530000000  0.0155700000000 1.0   0.03
S      3  0.3314830000000  0.1669980000000  0.3470530000000 1.0   0.03
S      3 -0.3314830000000  0.0155700000000 -0.1644850000000 1.0   0.03
Fe     4 -0.0713370000000 -0.0772270000000 -0.3399970000000 1.0   2.31
Fe     4  0.0713380000000 -0.2686590000000 -0.0058900000000 1.0   2.31
Fe     4 -0.2627690000000 -0.3399970000000 -0.2686590000000 1.0   2.31
Fe     4  0.2627700000000 -0.0058900000000 -0.0772270000000 1.0   2.31
Fe     4  0.5000000000000 -0.4078600000000  0.0921400000000 1.0   3.15
Fe     4 -0.5000000000000  0.0921400000000 -0.4078600000000 1.0   3.15
END
