TITL LFSO-Li4Fe2SO3-200910-223806-89ab83 -0.0772 363.235325 -8.28772228E+003 16.0000 16.3631 20 (Amm2) n - 1
REM
REM Run started: Fri, 11 Sep 2020 06:36:31 +0100 in /lustre/scratch/uccabz1/launch_tmp/launcher_2020-09-10-21-38-05-243123
REM CASTEP 20.1 from code version af48c487+ pr-geom-scf-spinfix Tue Jun 2 15:39:59 2020 +0100
REM Functional Perdew Burke Ernzerhof Relativity Koelling-Harmon Dispersion off
REM Cut-off 340.0000 eV Grid scale 1.7500 Gmax 16.5316 1/A FBSC none
REM MP grid 4 4 2 Offset 0.000 0.000 0.000 No. kpts 6 Spacing 0.07
REM Total runtime: 30244.1 s
REM Overall efficiency: 97.75 %
REM
REM
REM
REM compiler GCC version 4.9.2
REM options -cpp -iprefix /lustre/shared/ucl/apps/gcc/4.9.2/bin/../lib/gcc/x86_64-unknown-linux-gnu/4.9.2/ -mtune=corei7 -march=x86-64 -g -Og
REM COMMAND_LINE
REM seed -1795911238 1638880216 -1068429544 2116542676 -902856468 726462707 -830885410 1801022736 1200582718 -793222761 -961489540 1596551574
REM
REM S 3|1.8|5|6|7|30:31:32(qc=5)
REM O 2|1.5|12|13|15|20:21(qc=5)
REM Li 1|1.3|8|9|10|10U:20(qc=5)
REM Fe 3|2.2|2.0|1.0|8|9|10|40:41:32(qc=5)
REM 
CELL 1.54180    6.85916    6.85916   11.34170   90.00000   90.00000  137.10011
LATT -1
SFAC Li O  S  Fe 
Li     1  0.3592600000000 -0.0567400000000  0.3985270000000 1.0  -0.02
Li     1 -0.0567400000000  0.3592600000000 -0.3985270000000 1.0  -0.02
Li     1 -0.0567400000000  0.3592600000000  0.3985270000000 1.0  -0.02
Li     1  0.3592600000000 -0.0567400000000 -0.3985270000000 1.0  -0.02
Li     1  0.3279710000000 -0.0451580000000  0.2008280000000 1.0   0.01
Li     1 -0.0451580000000  0.3279710000000 -0.2008280000000 1.0   0.01
Li     1 -0.0451580000000  0.3279710000000  0.2008280000000 1.0   0.01
Li     1  0.3279710000000 -0.0451580000000 -0.2008280000000 1.0   0.01
O      2 -0.3479530000000  0.2581300000000  0.2858460000000 1.0   0.25
O      2  0.2581300000000 -0.3479530000000 -0.2858460000000 1.0   0.25
O      2  0.2581300000000 -0.3479530000000  0.2858460000000 1.0   0.25
O      2 -0.3479530000000  0.2581300000000 -0.2858460000000 1.0   0.25
O      2 -0.3468040000000 -0.0079900000000  0.5000000000000 1.0   0.27
O      2 -0.0079900000000 -0.3468040000000 -0.5000000000000 1.0   0.27
S      3 -0.0298600000000 -0.0298600000000  0.2474790000000 1.0   0.29
S      3 -0.0298600000000 -0.0298600000000 -0.2474790000000 1.0   0.29
Fe     4 -0.2194150000000 -0.4162790000000 -0.3558240000000 1.0   3.49
Fe     4 -0.4162790000000 -0.2194150000000  0.3558240000000 1.0   3.49
Fe     4 -0.4162790000000 -0.2194150000000 -0.3558240000000 1.0   3.49
Fe     4 -0.2194150000000 -0.4162790000000  0.3558240000000 1.0   3.49
END
