TITL LFSO-Li2Fe4S2O3-200912-075454-40c151 0.0145 159.462677 -5.77520721E+003 -14.0235 14.1787 11 (C2) n - 1
REM
REM Run started: Sat, 12 Sep 2020 11:16:25 +0100 in /lustre/scratch/uccabz1/launch_tmp/launcher_2020-09-12-06-54-52-370583
REM CASTEP 20.1 from code version af48c487+ pr-geom-scf-spinfix Tue Jun 2 15:39:59 2020 +0100
REM Functional Perdew Burke Ernzerhof Relativity Koelling-Harmon Dispersion off
REM Cut-off 340.0000 eV Grid scale 1.7500 Gmax 16.5316 1/A FBSC none
REM MP grid 3 4 3 Offset 0.000 0.000 0.000 No. kpts 16 Spacing 0.07
REM Total runtime: 12997.5 s
REM Overall efficiency: 97.4444 %
REM
REM
REM
REM compiler GCC version 4.9.2
REM options -cpp -iprefix /lustre/shared/ucl/apps/gcc/4.9.2/bin/../lib/gcc/x86_64-unknown-linux-gnu/4.9.2/ -mtune=corei7 -march=x86-64 -g -Og
REM COMMAND_LINE
REM seed 56821753 -1935109724 1614276432 -652842425 -580675778 142868477 303749850 1945413773 1743461993 747862069 99975633 -1024577895
REM
REM S 3|1.8|5|6|7|30:31:32(qc=5)
REM O 2|1.5|12|13|15|20:21(qc=5)
REM Li 1|1.3|8|9|10|10U:20(qc=5)
REM Fe 3|2.2|2.0|1.0|8|9|10|40:41:32(qc=5)
REM 
CELL 1.54180    6.33655    5.35131    5.93750   83.72245   79.35714   53.69690
LATT -1
SFAC Li O  S  Fe 
Li     1  0.2382700000000 -0.0547650000000  0.4573250000000 1.0   0.02
Li     1 -0.1835050000000 -0.0547650000000 -0.4573250000000 1.0   0.02
O      2 -0.0320000000000  0.0647540000000 -0.2654520000000 1.0  -0.34
O      2 -0.0327530000000  0.0647540000000  0.2654520000000 1.0  -0.34
O      2 -0.3727530000000  0.7455070000000 -0.5000000000000 1.0  -0.29
S      3 -0.5457730000000  0.4834780000000  0.1114440000000 1.0  -0.18
S      3  0.0622950000000  0.4834780000000 -0.1114440000000 1.0  -0.18
Fe     4  0.2114170000000 -0.0278180000000 -0.0382450000000 1.0  -3.23
Fe     4 -0.1835980000000 -0.0278180000000  0.0382450000000 1.0  -3.23
Fe     4 -0.2971420000000 -0.4642660000000 -0.2143850000000 1.0  -3.13
Fe     4 -0.2385910000000 -0.4642660000000  0.2143850000000 1.0  -3.13
END
