TITL LFSO-Li2Fe3SO3-200912-124229-1846ae -0.0261 115.306916 -4.60867280E+003 10.8374 10.9896 9 (C2) n - 1
REM
REM Run started: Sat, 12 Sep 2020 15:01:09 +0100 in /lustre/scratch/uccabz1/launch_tmp/launcher_2020-09-12-11-42-27-992415
REM CASTEP 20.1 from code version af48c487+ pr-geom-scf-spinfix Tue Jun 2 15:39:59 2020 +0100
REM Functional Perdew Burke Ernzerhof Relativity Koelling-Harmon Dispersion off
REM Cut-off 340.0000 eV Grid scale 1.7500 Gmax 16.5316 1/A FBSC none
REM MP grid 4 4 4 Offset 0.000 0.000 0.000 No. kpts 20 Spacing 0.07
REM Total runtime: 9586.3 s
REM Overall efficiency: 96 %
REM
REM
REM
REM compiler GCC version 4.9.2
REM options -cpp -iprefix /lustre/shared/ucl/apps/gcc/4.9.2/bin/../lib/gcc/x86_64-unknown-linux-gnu/4.9.2/ -mtune=corei7 -march=x86-64 -g -Og
REM COMMAND_LINE
REM seed 209367214 1508519511 1412041202 449261891 1797426876 -750201301 -2124805975 -1803842972 1514432723 2079213547 -2093935293 873333767
REM
REM S 3|1.8|5|6|7|30:31:32(qc=5)
REM O 2|1.5|12|13|15|20:21(qc=5)
REM Li 1|1.3|8|9|10|10U:20(qc=5)
REM Fe 3|2.2|2.0|1.0|8|9|10|40:41:32(qc=5)
REM 
CELL 1.54180    8.36255    5.56571    5.56571   63.52491  137.53280  137.53280
LATT -1
SFAC Li O  S  Fe 
Li     1 -0.0958850000000  0.4305210000000 -0.0105940000000 1.0  -0.03
Li     1  0.0958850000000  0.0105940000000 -0.4305210000000 1.0  -0.03
O      2 -0.2716780000000 -0.0731000000000  0.0764570000000 1.0   0.29
O      2  0.2716780000000 -0.0764570000000  0.0731000000000 1.0   0.29
O      2 -0.5000000000000  0.3185750000000 -0.3185750000000 1.0   0.30
S      3  0.0000000000000  0.3500640000000 -0.3500640000000 1.0   0.23
Fe     4 -0.3021540000000 -0.2007500000000 -0.2267200000000 1.0   3.40
Fe     4  0.3021540000000  0.2267200000000  0.2007500000000 1.0   3.40
Fe     4 -0.5000000000000 -0.1131100000000  0.1131100000000 1.0   3.00
END
