TITL LFSO-Li4Fe3S3O2-200927-003817-90ffa7 0.0042 388.858651 -1.03565685E+004 23.4930 23.8330 24 (Aea2) n - 1
REM
REM Run started: Sun, 27 Sep 2020 10:59:47 +0100 in /lustre/scratch/uccabz1/launch_tmp/launcher_2020-09-26-23-38-16-045258
REM CASTEP 20.1 from code version af48c487+ pr-geom-scf-spinfix Tue Jun 2 15:39:59 2020 +0100
REM Functional Perdew Burke Ernzerhof Relativity Koelling-Harmon Dispersion off
REM Cut-off 340.0000 eV Grid scale 1.7500 Gmax 16.5316 1/A FBSC none
REM MP grid 3 3 2 Offset 0.000 0.000 0.000 No. kpts 4 Spacing 0.07
REM Total runtime: 38551 s
REM Overall efficiency: 98.5 %
REM
REM
REM
REM compiler GCC version 4.9.2
REM options -cpp -iprefix /lustre/shared/ucl/apps/gcc/4.9.2/bin/../lib/gcc/x86_64-unknown-linux-gnu/4.9.2/ -mtune=corei7 -march=x86-64 -g -Og
REM COMMAND_LINE
REM seed -1750685317 -2050272104 -208835592 54520466 304483293 640430495 845375984 -1306403709 -542515449 372392996 -482331275 1378829243
REM
REM S 3|1.8|5|6|7|30:31:32(qc=5)
REM O 2|1.5|12|13|15|20:21(qc=5)
REM Li 1|1.3|8|9|10|10U:20(qc=5)
REM Fe 3|2.2|2.0|1.0|8|9|10|40:41:32(qc=5)
REM 
CELL 1.54180    5.20194    6.64464   12.22564   90.00000   90.00000  113.04408
LATT -1
SFAC Li O  S  Fe 
Li     1  0.0889620000000 -0.4465600000000  0.1964180000000 1.0   0.01
Li     1  0.4644790000000 -0.4465600000000 -0.1964180000000 1.0   0.01
Li     1 -0.0355210000000 -0.4465600000000 -0.3035820000000 1.0   0.01
Li     1 -0.4110380000000 -0.4465600000000  0.3035820000000 1.0   0.01
Li     1  0.3997420000000  0.1642430000000  0.3030960000000 1.0  -0.02
Li     1 -0.2354990000000  0.1642430000000 -0.3030960000000 1.0  -0.02
Li     1  0.2645010000000  0.1642430000000 -0.1969040000000 1.0  -0.02
Li     1 -0.1002580000000  0.1642430000000  0.1969040000000 1.0  -0.02
O      2  0.1635570000000  0.3681570000000 -0.3001370000000 1.0   0.33
O      2 -0.7953990000000  0.3681570000000  0.3001370000000 1.0   0.33
O      2 -0.2953990000000  0.3681570000000  0.1998630000000 1.0   0.33
O      2  0.6635570000000  0.3681570000000 -0.1998630000000 1.0   0.33
S      3  0.1672880000000 -0.0719200000000  0.1295680000000 1.0   0.29
S      3 -0.2392080000000 -0.0719200000000 -0.1295680000000 1.0   0.29
S      3  0.2607920000000 -0.0719200000000 -0.3704320000000 1.0   0.29
S      3 -0.3327120000000 -0.0719200000000  0.3704320000000 1.0   0.29
S      3  0.2328520000000 -0.5342970000000 -0.0000000000000 1.0   0.22
S      3 -0.2671480000000 -0.5342970000000 -0.5000000000000 1.0   0.22
Fe     4  0.2947450000000  0.2730420000000 -0.4188260000000 1.0   3.49
Fe     4 -0.0217030000000  0.2730420000000  0.4188260000000 1.0   3.49
Fe     4 -0.5217030000000  0.2730420000000  0.0811740000000 1.0   3.49
Fe     4 -0.2052550000000  0.2730420000000 -0.0811740000000 1.0   3.49
Fe     4  0.4331150000000 -0.1337690000000 -0.0000000000000 1.0   3.32
Fe     4 -0.0668850000000 -0.1337690000000  0.5000000000000 1.0   3.32
END
