TITL LFSO-Li2Fe2SO2-200913-012540-f2a1e9 0.0820 313.413364 -9.91795240E+003 -17.7109 18.4136 21 (Cm) n - 1
REM
REM Run started: Sun, 13 Sep 2020 15:30:44 +0100 in /lustre/scratch/uccabz1/launch_tmp/launcher_2020-09-13-00-25-38-531197
REM CASTEP 20.1 from code version af48c487+ pr-geom-scf-spinfix Tue Jun 2 15:39:59 2020 +0100
REM Functional Perdew Burke Ernzerhof Relativity Koelling-Harmon Dispersion off
REM Cut-off 340.0000 eV Grid scale 1.7500 Gmax 16.5316 1/A FBSC none
REM MP grid 3 2 2 Offset 0.000 0.000 0.000 No. kpts 5 Spacing 0.07
REM Total runtime: 54472.5 s
REM Overall efficiency: 77.5833 %
REM
REM
REM
REM compiler GCC version 4.9.2
REM options -cpp -iprefix /lustre/shared/ucl/apps/gcc/4.9.2/bin/../lib/gcc/x86_64-unknown-linux-gnu/4.9.2/ -mtune=corei7 -march=x86-64 -g -Og
REM COMMAND_LINE
REM seed 1692613080 -94023817 1006352763 100289291 -1105249134 162275225 -1054611889 -223572813 -48431321 697812970 -1632171827 267281200
REM
REM S 3|1.8|5|6|7|30:31:32(qc=5)
REM O 2|1.5|12|13|15|20:21(qc=5)
REM Li 1|1.3|8|9|10|10U:20(qc=5)
REM Fe 3|2.2|2.0|1.0|8|9|10|40:41:32(qc=5)
REM 
CELL 1.54180    5.11268    8.01997    8.01997   97.67094  100.39817  100.39817
LATT -1
SFAC Li O  S  Fe 
Li     1 -0.0626410000000 -0.0304750000000  0.3264360000000 1.0   0.03
Li     1 -0.0626410000000  0.3264360000000 -0.0304750000000 1.0   0.03
Li     1  0.0903590000000  0.0802700000000 -0.2895010000000 1.0  -0.02
Li     1  0.0903590000000 -0.2895010000000  0.0802700000000 1.0  -0.02
Li     1 -0.4946780000000 -0.2531620000000  0.3674190000000 1.0   0.05
Li     1 -0.4946780000000  0.3674190000000 -0.2531620000000 1.0   0.05
O      2  0.2840130000000  0.5465510000000  0.2029480000000 1.0  -0.16
O      2  0.2840130000000  0.2029480000000  0.5465510000000 1.0  -0.16
O      2 -0.2106750000000 -0.0640690000000 -0.4594750000000 1.0  -0.20
O      2 -0.2106750000000 -0.4594750000000 -0.0640690000000 1.0  -0.20
O      2 -0.1772700000000  0.2867830000000 -0.3154310000000 1.0  -0.15
O      2 -0.1772700000000 -0.3154310000000  0.2867830000000 1.0  -0.15
S      3  0.3843520000000 -0.0179840000000  0.2415140000000 1.0  -0.20
S      3  0.3843520000000  0.2415140000000 -0.0179840000000 1.0  -0.20
S      3  0.2556230000000 -0.2075970000000 -0.2075970000000 1.0  -0.20
Fe     4  0.5692480000000  0.5059720000000  0.0915930000000 1.0  -2.91
Fe     4  0.5692480000000  0.0915930000000  0.5059720000000 1.0  -2.91
Fe     4  0.0316520000000  0.3321680000000 -0.4813750000000 1.0  -2.37
Fe     4  0.0316520000000 -0.4813750000000  0.3321680000000 1.0  -2.37
Fe     4 -0.0303620000000 -0.2622140000000  0.5424660000000 1.0  -2.83
Fe     4 -0.0303620000000  0.5424660000000 -0.2622140000000 1.0  -2.83
END
