TITL LFSO-Li3FeSO2-200911-163038-6d928c 0.0530 318.383409 -7.92680875E+003 -11.0004 11.6548 21 (C2) n - 1
REM
REM Run started: Sun, 13 Sep 2020 03:48:23 +0100 in /lustre/scratch/uccabz1/launch_tmp/launcher_2020-09-11-22-09-04-029531
REM CASTEP 20.1 from code version af48c487+ pr-geom-scf-spinfix Tue Jun 2 15:39:59 2020 +0100
REM Functional Perdew Burke Ernzerhof Relativity Koelling-Harmon Dispersion off
REM Cut-off 340.0000 eV Grid scale 1.7500 Gmax 16.5316 1/A FBSC none
REM MP grid 4 4 2 Offset 0.000 0.000 0.000 No. kpts 10 Spacing 0.07
REM Total runtime: 135618 s
REM Overall efficiency: 93.2143 %
REM
REM
REM
REM compiler GCC version 4.9.2
REM options -cpp -iprefix /lustre/shared/ucl/apps/gcc/4.9.2/bin/../lib/gcc/x86_64-unknown-linux-gnu/4.9.2/ -mtune=corei7 -march=x86-64 -g -Og
REM COMMAND_LINE
REM seed -1441085342 2128673495 1548179218 23243324 -1428663047 -2117113801 447803706 1866781737 1209986207 1205521980 -521325788 -1232817001
REM
REM S 3|1.8|5|6|7|30:31:32(qc=5)
REM O 2|1.5|12|13|15|20:21(qc=5)
REM Li 1|1.3|8|9|10|10U:20(qc=5)
REM Fe 3|2.2|2.0|1.0|8|9|10|40:41:32(qc=5)
REM 
CELL 1.54180    6.74019    6.74019   15.40063   44.40168   44.40168   46.29348
LATT -1
SFAC Li O  S  Fe 
Li     1  0.4811390000000 -0.3589310000000  0.3206510000000 1.0   0.09
Li     1  0.3589310000000 -0.4811390000000 -0.3206510000000 1.0   0.09
Li     1  0.1319990000000  0.2394000000000 -0.3568660000000 1.0   0.02
Li     1 -0.2394000000000 -0.1319990000000  0.3568660000000 1.0   0.02
Li     1  0.1699960000000  0.3868460000000  0.4205300000000 1.0  -0.03
Li     1 -0.3868460000000 -0.1699960000000 -0.4205300000000 1.0  -0.03
Li     1  0.3432700000000 -0.3174550000000  0.1494730000000 1.0  -0.02
Li     1  0.3174550000000 -0.3432700000000 -0.1494730000000 1.0  -0.02
Li     1 -0.3975200000000  0.3975200000000  0.0000000000000 1.0   0.19
O      2 -0.5505900000000 -0.1881920000000 -0.0324090000000 1.0  -0.05
O      2  0.1881920000000  0.5505900000000  0.0324090000000 1.0  -0.05
O      2 -0.2665950000000 -0.4922030000000  0.5262650000000 1.0  -0.17
O      2  0.4922030000000  0.2665950000000 -0.5262650000000 1.0  -0.17
O      2  0.1835770000000 -0.1772520000000 -0.2695900000000 1.0  -0.19
O      2  0.1772520000000 -0.1835770000000  0.2695900000000 1.0  -0.19
S      3 -0.6535790000000  0.1586690000000  0.2951290000000 1.0  -0.20
S      3 -0.1586690000000  0.6535790000000 -0.2951290000000 1.0  -0.20
S      3 -0.8938960000000  0.8938960000000  0.0000000000000 1.0   0.07
Fe     4  0.1611250000000  0.1787000000000  0.2091140000000 1.0  -3.33
Fe     4 -0.1787000000000 -0.1611250000000 -0.2091140000000 1.0  -3.33
Fe     4  0.6906450000000 -0.6906450000000 -0.5000000000000 1.0  -3.48
END
