TITL LFSO-Li4Fe3SO4-200927-182822-68f5ba -1.3405 502.252575 -10881.03788672 -1.03365 9.05801 24 (Pm) n - 1
REM
REM Run started: Wed, 30 Sep 2020 00:54:57 +0100 in /lustre/scratch/uccabz1/launch_tmp/launcher_2020-09-29-08-46-34-725569
REM CASTEP 20.1 from code version af48c487+ pr-geom-scf-spinfix Tue Jun 2 15:39:59 2020 +0100
REM Functional Perdew Burke Ernzerhof Relativity Koelling-Harmon Dispersion off
REM Cut-off 340.0000 eV Grid scale 1.7500 Gmax 16.5316 1/A FBSC none
REM MP grid 3 3 2 Offset 0.000 0.000 0.000 No. kpts 5 Spacing 0.07
REM Total runtime: 94703.6 s
REM Overall efficiency: 77.5 %
REM
REM
REM
REM compiler GCC version 4.9.2
REM options -cpp -iprefix /lustre/shared/ucl/apps/gcc/4.9.2/bin/../lib/gcc/x86_64-unknown-linux-gnu/4.9.2/ -mtune=corei7 -march=x86-64 -g -Og
REM COMMAND_LINE
REM seed -1655525560 2051979488 1250572132 -1907468702 1393755557 1527532515 -1094971418 54783610 -129780867 686819479 -1120673384 168071719
REM
REM S 3|1.8|5|6|7|30:31:32(qc=5)
REM O 2|1.5|12|13|15|20:21(qc=5)
REM Li 1|1.3|8|9|10|10U:20(qc=5)
REM Fe 3|2.2|2.0|1.0|8|9|10|40:41:32(qc=5)
REM 
CELL 1.54180    6.01756    7.56683   12.67970   90.00000   90.00000  119.55091
LATT -1
SFAC Li O  S  Fe 
Li     1 -0.4521320000000 -0.1176660000000  0.2817090000000 1.0  -0.01
Li     1 -0.4521320000000 -0.1176660000000 -0.2817090000000 1.0  -0.01
Li     1 -0.1608610000000 -0.2958740000000  0.1862760000000 1.0   0.01
Li     1 -0.1608610000000 -0.2958740000000 -0.1862760000000 1.0   0.01
Li     1  0.3169500000000  0.0439730000000 -0.2015530000000 1.0   0.03
Li     1  0.3169500000000  0.0439730000000  0.2015530000000 1.0   0.03
Li     1 -0.3408360000000  0.2687480000000 -0.3623800000000 1.0  -0.03
Li     1 -0.3408360000000  0.2687480000000  0.3623800000000 1.0  -0.03
O      2  0.3486380000000  0.0594270000000 -0.3729900000000 1.0   0.30
O      2  0.3486380000000  0.0594270000000  0.3729900000000 1.0   0.30
O      2 -0.0203060000000  0.3031710000000 -0.3561940000000 1.0   0.29
O      2 -0.0203060000000  0.3031710000000  0.3561940000000 1.0   0.29
O      2  0.2203000000000 -0.2338820000000 -0.2205200000000 1.0   0.27
O      2  0.2203000000000 -0.2338820000000  0.2205200000000 1.0   0.27
O      2 -0.1650430000000 -0.1381670000000  0.3081890000000 1.0   0.33
O      2 -0.1650430000000 -0.1381670000000 -0.3081890000000 1.0   0.33
S      3  0.6740740000000  0.3593280000000  0.1621280000000 1.0   0.30
S      3  0.6740740000000  0.3593280000000 -0.1621280000000 1.0   0.30
Fe     4  0.0610390000000 -0.2073790000000 -0.3813450000000 1.0   3.37
Fe     4  0.0610390000000 -0.2073790000000  0.3813450000000 1.0   3.37
Fe     4  0.0399030000000 -0.5045770000000 -0.2528750000000 1.0   3.27
Fe     4  0.0399030000000 -0.5045770000000  0.2528750000000 1.0   3.27
Fe     4  0.0798380000000  0.1178630000000  0.3894950000000 1.0   3.41
Fe     4  0.0798380000000  0.1178630000000 -0.3894950000000 1.0   3.41
END
