TITL LFSO-Li4Fe3S3O2-200927-080323-4c412e -0.0092 263.017569 -5.17623022E+003 4.15785 10.9670 12 (Pm) n - 1
REM
REM Run started: Sun, 27 Sep 2020 16:28:38 +0100 in /lustre/scratch/uccabz1/launch_tmp/launcher_2020-09-27-07-03-21-855335
REM CASTEP 20.1 from code version af48c487+ pr-geom-scf-spinfix Tue Jun 2 15:39:59 2020 +0100
REM Functional Perdew Burke Ernzerhof Relativity Koelling-Harmon Dispersion off
REM Cut-off 340.0000 eV Grid scale 1.7500 Gmax 16.5316 1/A FBSC none
REM MP grid 5 2 2 Offset 0.000 0.000 0.000 No. kpts 5 Spacing 0.07
REM Total runtime: 38726.8 s
REM Overall efficiency: 76.3333 %
REM
REM
REM
REM compiler GCC version 4.9.2
REM options -cpp -iprefix /lustre/shared/ucl/apps/gcc/4.9.2/bin/../lib/gcc/x86_64-unknown-linux-gnu/4.9.2/ -mtune=corei7 -march=x86-64 -g -Og
REM COMMAND_LINE
REM seed 1850999957 1799969671 1786782354 -1278389557 19009168 1379994487 -350725040 -2001534948 87366389 372206768 1137666381 1652208584
REM
REM S 3|1.8|5|6|7|30:31:32(qc=5)
REM O 2|1.5|12|13|15|20:21(qc=5)
REM Li 1|1.3|8|9|10|10U:20(qc=5)
REM Fe 3|2.2|2.0|1.0|8|9|10|40:41:32(qc=5)
REM 
CELL 1.54180    3.53423    8.45411    9.04241   90.00000   76.78132   90.00000
LATT -1
SFAC Li O  S  Fe 
Li     1  0.0513970000000 -0.3493480000000  0.0659330000000 1.0  -0.03
Li     1  0.0513970000000  0.3493480000000  0.0659330000000 1.0  -0.03
Li     1  0.6377560000000 -0.3267770000000 -0.2574590000000 1.0   0.04
Li     1  0.6377560000000  0.3267770000000 -0.2574590000000 1.0   0.04
O      2 -0.0816990000000 -0.3205770000000  0.2737300000000 1.0   0.31
O      2 -0.0816990000000  0.3205770000000  0.2737300000000 1.0   0.31
S      3  0.2355710000000  0.2552390000000 -0.4148220000000 1.0   0.01
S      3  0.2355710000000 -0.2552390000000 -0.4148220000000 1.0   0.01
S      3 -0.3887630000000  0.5000000000000 -0.0492170000000 1.0   0.04
Fe     4  0.3802680000000 -0.3475080000000  0.3383330000000 1.0   3.36
Fe     4  0.3802680000000  0.3475080000000  0.3383330000000 1.0   3.36
Fe     4  0.2266210000000  0.0000000000000 -0.4302460000000 1.0  -3.26
END
