TITL LFSO-Li2Fe2SO3-200913-095250-514847 0.0344 238.174240 -7.47986927E+003 3.86978 4.77840 16 (Ama2) n - 1
REM
REM Run started: Sun, 13 Sep 2020 11:33:36 +0100 in /lustre/scratch/uccabz1/launch_tmp/launcher_2020-09-13-08-52-48-387867
REM CASTEP 20.1 from code version af48c487+ pr-geom-scf-spinfix Tue Jun 2 15:39:59 2020 +0100
REM Functional Perdew Burke Ernzerhof Relativity Koelling-Harmon Dispersion off
REM Cut-off 340.0000 eV Grid scale 1.7500 Gmax 16.5316 1/A FBSC none
REM MP grid 3 3 2 Offset 0.000 0.000 0.000 No. kpts 6 Spacing 0.07
REM Total runtime: 6241.92 s
REM Overall efficiency: 95.5714 %
REM
REM
REM
REM compiler GCC version 4.9.2
REM options -cpp -iprefix /lustre/shared/ucl/apps/gcc/4.9.2/bin/../lib/gcc/x86_64-unknown-linux-gnu/4.9.2/ -mtune=corei7 -march=x86-64 -g -Og
REM COMMAND_LINE
REM seed 2022348434 -1382268708 -407194835 -958912712 -323853101 -397878433 -1431546772 -684400462 -2083178136 1137198464 990939683 843047167
REM
REM S 3|1.8|5|6|7|30:31:32(qc=5)
REM O 2|1.5|12|13|15|20:21(qc=5)
REM Li 1|1.3|8|9|10|10U:20(qc=5)
REM Fe 3|2.2|2.0|1.0|8|9|10|40:41:32(qc=5)
REM 
CELL 1.54180    5.87547    5.51257    7.85316  110.54710   90.00000   90.00000
LATT -1
SFAC Li O  S  Fe 
Li     1 -0.5081190000000  0.5535210000000 -0.4985180000000 1.0   0.01
Li     1  0.5081190000000 -0.0520390000000 -0.4985180000000 1.0   0.01
Li     1 -0.0081190000000 -0.0520390000000 -0.4985180000000 1.0   0.01
Li     1  0.0081190000000  0.5535210000000 -0.4985180000000 1.0   0.01
O      2  0.0200180000000  0.3743930000000  0.2518490000000 1.0   0.11
O      2 -0.0200180000000 -0.1225450000000  0.2518490000000 1.0   0.11
O      2 -0.4799820000000 -0.1225450000000  0.2518490000000 1.0   0.11
O      2  0.4799820000000  0.3743930000000  0.2518490000000 1.0   0.11
O      2 -0.2500000000000 -0.2241220000000 -0.4225150000000 1.0  -0.09
O      2  0.2500000000000 -0.1983930000000 -0.4225150000000 1.0  -0.09
S      3  0.0000000000000 -0.0734310000000 -0.1468620000000 1.0  -0.11
S      3  0.5000000000000 -0.0734310000000 -0.1468620000000 1.0  -0.11
Fe     4  0.0694510000000  0.3064150000000  0.0378830000000 1.0   0.95
Fe     4 -0.0694510000000 -0.2685320000000  0.0378830000000 1.0   0.95
Fe     4 -0.4305490000000 -0.2685320000000  0.0378830000000 1.0   0.95
Fe     4  0.4305490000000  0.3064150000000  0.0378830000000 1.0   0.95
END
