TITL LFSO-LiFe3S2O3-200909-183958-2d5550 -0.0073 161.663438 -4.71229012E+003 4.22187 8.87330 9 (Cm) n - 1
REM
REM Run started: Wed, 09 Sep 2020 23:10:56 +0100 in /lustre/scratch/uccabz1/launch_tmp/launcher_2020-09-09-17-39-56-706550
REM CASTEP 20.1 from code version af48c487+ pr-geom-scf-spinfix Tue Jun 2 15:39:59 2020 +0100
REM Functional Perdew Burke Ernzerhof Relativity Koelling-Harmon Dispersion off
REM Cut-off 340.0000 eV Grid scale 1.7500 Gmax 16.5316 1/A FBSC none
REM MP grid 3 4 3 Offset 0.000 0.000 0.000 No. kpts 18 Spacing 0.07
REM Total runtime: 16330.1 s
REM Overall efficiency: 95.6667 %
REM
REM
REM
REM compiler GCC version 4.9.2
REM options -cpp -iprefix /lustre/shared/ucl/apps/gcc/4.9.2/bin/../lib/gcc/x86_64-unknown-linux-gnu/4.9.2/ -mtune=corei7 -march=x86-64 -g -Og
REM COMMAND_LINE
REM seed 995716595 -514317860 107131968 -1729538521 215928312 966669453 1137038296 -1759022243 269341218 -1223583790 1205843571 247078318
REM
REM S 3|1.8|5|6|7|30:31:32(qc=5)
REM O 2|1.5|12|13|15|20:21(qc=5)
REM Li 1|1.3|8|9|10|10U:20(qc=5)
REM Fe 3|2.2|2.0|1.0|8|9|10|40:41:32(qc=5)
REM 
CELL 1.54180    5.31858    5.31858    7.16394  120.70604  111.89964   79.03566
LATT -1
SFAC Li O  S  Fe 
Li     1  0.5611520000000  0.4389490000000  0.0001010000000 1.0   0.03
O      2  0.4422830000000  0.0413330000000 -0.2060240000000 1.0   0.13
O      2 -0.2473570000000 -0.6483070000000 -0.2060240000000 1.0   0.13
O      2 -0.0386840000000 -0.2504140000000 -0.2890980000000 1.0   0.03
S      3 -0.2127780000000 -0.0499640000000  0.3322540000000 1.0   0.18
S      3  0.3822170000000  0.5450320000000  0.3322540000000 1.0   0.18
Fe     4  0.7362180000000  0.4293950000000 -0.4257560000000 1.0   2.92
Fe     4  0.1448480000000 -0.1619740000000 -0.4257560000000 1.0   2.92
Fe     4 -0.3413360000000 -0.0372930000000  0.6213710000000 1.0  -2.32
END
