TITL LFSO-Li3Fe3SO5-200926-110854-dad700 -0.0320 160.144693 -5.68125810E+003 8.19852 9.55411 12 (P2) n - 1
REM
REM Run started: Sat, 26 Sep 2020 14:38:53 +0100 in /lustre/scratch/uccabz1/launch_tmp/launcher_2020-09-26-10-08-51-631171
REM CASTEP 20.1 from code version af48c487+ pr-geom-scf-spinfix Tue Jun 2 15:39:59 2020 +0100
REM Functional Perdew Burke Ernzerhof Relativity Koelling-Harmon Dispersion off
REM Cut-off 340.0000 eV Grid scale 1.7500 Gmax 16.5316 1/A FBSC none
REM MP grid 5 3 2 Offset 0.000 0.000 0.000 No. kpts 9 Spacing 0.07
REM Total runtime: 16906.9 s
REM Overall efficiency: 96.7143 %
REM
REM
REM
REM compiler GCC version 4.9.2
REM options -cpp -iprefix /lustre/shared/ucl/apps/gcc/4.9.2/bin/../lib/gcc/x86_64-unknown-linux-gnu/4.9.2/ -mtune=corei7 -march=x86-64 -g -Og
REM COMMAND_LINE
REM seed -766548509 1882178617 -710059108 -1392619617 -994343634 1867931482 1720215238 1311001976 -1605083165 1012714413 -729535979 1107404051
REM
REM S 3|1.8|5|6|7|30:31:32(qc=5)
REM O 2|1.5|12|13|15|20:21(qc=5)
REM Li 1|1.3|8|9|10|10U:20(qc=5)
REM Fe 3|2.2|2.0|1.0|8|9|10|40:41:32(qc=5)
REM 
CELL 1.54180    3.51129    5.29399    8.61592   89.23901   90.00000   90.00000
LATT -1
SFAC Li O  S  Fe 
Li     1  0.1698210000000 -0.0446210000000  0.2825100000000 1.0   0.02
Li     1  0.1698210000000  0.0446210000000 -0.2825100000000 1.0   0.02
Li     1 -0.3287340000000 -0.0000000000000 -0.5000000000000 1.0   0.03
O      2 -0.3441240000000 -0.1315880000000 -0.2214080000000 1.0   0.43
O      2 -0.3441240000000  0.1315880000000  0.2214080000000 1.0   0.43
O      2  0.1324840000000  0.4245910000000 -0.2079110000000 1.0   0.11
O      2  0.1324840000000 -0.4245910000000  0.2079110000000 1.0   0.11
O      2  0.1705970000000 -0.0000000000000  0.5000000000000 1.0  -0.49
S      3 -0.3799980000000  0.5000000000000 -0.5000000000000 1.0  -0.15
Fe     4 -0.3685700000000 -0.5504140000000  0.2521240000000 1.0   2.25
Fe     4 -0.3685700000000  0.5504140000000 -0.2521240000000 1.0   2.25
Fe     4  0.1253940000000 -0.5000000000000  0.0000000000000 1.0   3.17
END
