TITL LFSO-LiFe3S2O3-200909-162037-491061 -0.0331 238.780654 -9.42188703E+003 -18.1059 18.5867 18 (F222) n - 1
REM
REM Run started: Wed, 09 Sep 2020 23:37:40 +0100 in /lustre/scratch/uccabz1/launch_tmp/launcher_2020-09-09-15-20-36-036822
REM CASTEP 20.1 from code version af48c487+ pr-geom-scf-spinfix Tue Jun 2 15:39:59 2020 +0100
REM Functional Perdew Burke Ernzerhof Relativity Koelling-Harmon Dispersion off
REM Cut-off 340.0000 eV Grid scale 1.7500 Gmax 16.5316 1/A FBSC none
REM MP grid 3 3 3 Offset 0.000 0.000 0.000 No. kpts 8 Spacing 0.07
REM Total runtime: 26991.8 s
REM Overall efficiency: 98.5 %
REM
REM
REM
REM compiler GCC version 4.9.2
REM options -cpp -iprefix /lustre/shared/ucl/apps/gcc/4.9.2/bin/../lib/gcc/x86_64-unknown-linux-gnu/4.9.2/ -mtune=corei7 -march=x86-64 -g -Og
REM COMMAND_LINE
REM seed -419155856 862826726 -1705446426 1688830978 473455347 900656954 1421303612 707713454 -1078411595 -1594298115 -643398401 1302671890
REM
REM S 3|1.8|5|6|7|30:31:32(qc=5)
REM O 2|1.5|12|13|15|20:21(qc=5)
REM Li 1|1.3|8|9|10|10U:20(qc=5)
REM Fe 3|2.2|2.0|1.0|8|9|10|40:41:32(qc=5)
REM 
CELL 1.54180    7.16938    7.16938    7.80315  129.48373  129.48373   67.40981
LATT -1
SFAC Li O  S  Fe 
Li     1 -0.3481980000000 -0.3481980000000 -0.6963960000000 1.0   0.01
Li     1  0.3481980000000  0.3481980000000  0.6963960000000 1.0   0.01
O      2  0.5229350000000 -0.4326830000000  0.4011270000000 1.0  -0.17
O      2 -0.1218080000000 -0.1661910000000  0.4011270000000 1.0  -0.17
O      2  0.4326830000000 -0.5229350000000 -0.4011270000000 1.0  -0.17
O      2  0.1661900000000  0.1218080000000 -0.4011270000000 1.0  -0.17
O      2 -0.0223500000000 -0.5223500000000 -0.0446990000000 1.0  -0.32
O      2  0.5223500000000  0.0223490000000  0.0446990000000 1.0  -0.32
S      3 -0.2863880000000  0.1163470000000 -0.2068970000000 1.0  -0.05
S      3  0.0794900000000 -0.3232440000000 -0.2068970000000 1.0  -0.05
S      3 -0.1163470000000  0.2863870000000  0.2068970000000 1.0  -0.05
S      3  0.3232440000000 -0.0794910000000  0.2068970000000 1.0  -0.05
Fe     4  0.4538930000000  0.2410000000000  0.2958910000000 1.0  -2.58
Fe     4 -0.1580030000000  0.0548900000000  0.2958910000000 1.0  -2.58
Fe     4 -0.2410010000000 -0.4538930000000 -0.2958910000000 1.0  -2.58
Fe     4 -0.0548900000000  0.1580030000000 -0.2958910000000 1.0  -2.58
Fe     4  0.1340560000000 -0.3659440000000 -0.5000000000000 1.0  -3.14
Fe     4  0.3659440000000 -0.1340560000000 -0.5000000000000 1.0  -3.14
END
