TITL LFSO-Li4Fe2S3O2-200911-085412-c5f632 0.0384 439.607844 -8.62940575E+003 14.3196 14.5708 22 (R3) n - 1
REM
REM Run started: Fri, 11 Sep 2020 21:33:29 +0100 in /lustre/scratch/uccabz1/launch_tmp/launcher_2020-09-11-07-54-10-517620
REM CASTEP 20.1 from code version af48c487+ pr-geom-scf-spinfix Tue Jun 2 15:39:59 2020 +0100
REM Functional Perdew Burke Ernzerhof Relativity Koelling-Harmon Dispersion off
REM Cut-off 340.0000 eV Grid scale 1.7500 Gmax 16.5316 1/A FBSC none
REM MP grid 3 3 3 Offset 0.000 0.000 0.000 No. kpts 6 Spacing 0.07
REM Total runtime: 45803.6 s
REM Overall efficiency: 97.75 %
REM
REM
REM
REM compiler GCC version 4.9.2
REM options -cpp -iprefix /lustre/shared/ucl/apps/gcc/4.9.2/bin/../lib/gcc/x86_64-unknown-linux-gnu/4.9.2/ -mtune=corei7 -march=x86-64 -g -Og
REM COMMAND_LINE
REM seed -324738894 96714023 658458040 121320092 -250265547 -424228470 -1437935296 -528429493 -253893778 -772603433 1109474072 1396864786
REM
REM S 3|1.8|5|6|7|30:31:32(qc=5)
REM O 2|1.5|12|13|15|20:21(qc=5)
REM Li 1|1.3|8|9|10|10U:20(qc=5)
REM Fe 3|2.2|2.0|1.0|8|9|10|40:41:32(qc=5)
REM 
CELL 1.54180    8.43323    8.43323    8.43323   61.63069   61.63069   61.63069
LATT -1
SFAC Li O  S  Fe 
Li     1  0.4718940000000 -0.4878840000000 -0.0005740000000 1.0   0.07
Li     1 -0.4878840000000 -0.0005740000000  0.4718940000000 1.0   0.07
Li     1 -0.0005740000000  0.4718940000000 -0.4878840000000 1.0   0.07
Li     1 -0.0184130000000 -0.0427640000000  0.3298310000000 1.0   0.02
Li     1 -0.0427640000000  0.3298310000000 -0.0184130000000 1.0   0.02
Li     1  0.3298310000000 -0.0184130000000 -0.0427640000000 1.0   0.02
Li     1 -0.2209410000000 -0.2209410000000 -0.2209410000000 1.0   0.04
Li     1 -0.4142060000000 -0.4142060000000 -0.4142060000000 1.0  -0.06
O      2 -0.1833760000000  0.6065390000000  0.3984630000000 1.0   0.38
O      2  0.6065390000000  0.3984630000000 -0.1833760000000 1.0   0.38
O      2  0.3984630000000 -0.1833760000000  0.6065390000000 1.0   0.38
O      2  0.0610370000000  0.0610370000000  0.0610370000000 1.0   0.24
S      3  0.0872510000000 -0.3284590000000  0.5732270000000 1.0   0.17
S      3 -0.3284590000000  0.5732270000000  0.0872510000000 1.0   0.17
S      3  0.5732270000000  0.0872510000000 -0.3284590000000 1.0   0.17
S      3  0.1218530000000 -0.3486420000000  0.0002110000000 1.0   0.15
S      3 -0.3486420000000  0.0002110000000  0.1218530000000 1.0   0.15
S      3  0.0002110000000  0.1218530000000 -0.3486420000000 1.0   0.15
Fe     4 -0.3194660000000  0.1739720000000 -0.1954680000000 1.0   2.90
Fe     4  0.1739720000000 -0.1954680000000 -0.3194660000000 1.0   2.90
Fe     4 -0.1954680000000 -0.3194660000000  0.1739720000000 1.0   2.90
Fe     4 -0.0302260000000 -0.0302260000000 -0.0302260000000 1.0   3.03
END
