TITL LFSO-LiFe3S4O-200909-073545-4e41a3 0.0462 361.521320 -8.88788301E+003 -12.6300 13.4458 18 (Cm) n - 1
REM
REM Run started: Thu, 10 Sep 2020 04:09:09 +0100 in /lustre/scratch/uccabz1/launch_tmp/launcher_2020-09-09-06-35-43-883282
REM CASTEP 20.1 from code version af48c487+ pr-geom-scf-spinfix Tue Jun 2 15:39:59 2020 +0100
REM Functional Perdew Burke Ernzerhof Relativity Koelling-Harmon Dispersion off
REM Cut-off 340.0000 eV Grid scale 1.7500 Gmax 16.5316 1/A FBSC none
REM MP grid 3 2 3 Offset 0.000 0.000 0.000 No. kpts 6 Spacing 0.07
REM Total runtime: 74318.1 s
REM Overall efficiency: 92.2727 %
REM
REM
REM
REM compiler GCC version 4.9.2
REM options -cpp -iprefix /lustre/shared/ucl/apps/gcc/4.9.2/bin/../lib/gcc/x86_64-unknown-linux-gnu/4.9.2/ -mtune=corei7 -march=x86-64 -g -Og
REM COMMAND_LINE
REM seed 1606021377 690346439 -1401609251 1172620063 739681357 1902717407 -1867477712 -1287058593 -2083230986 1682413426 1603012855 -1566767418
REM
REM S 3|1.8|5|6|7|30:31:32(qc=5)
REM O 2|1.5|12|13|15|20:21(qc=5)
REM Li 1|1.3|8|9|10|10U:20(qc=5)
REM Fe 3|2.2|2.0|1.0|8|9|10|40:41:32(qc=5)
REM 
CELL 1.54180    5.81525    9.28943    7.40769   94.22119   66.88896  100.80853
LATT -1
SFAC Li O  S  Fe 
Li     1 -0.0628740000000 -0.3509840000000  0.3846220000000 1.0  -0.03
Li     1  0.3217490000000 -0.3509840000000 -0.3846220000000 1.0  -0.03
O      2  0.0278930000000  0.4862550000000  0.2195050000000 1.0  -0.17
O      2  0.2473980000000  0.4862550000000 -0.2195050000000 1.0  -0.17
S      3  0.0317100000000  0.1660080000000 -0.2860890000000 1.0  -0.11
S      3 -0.2543800000000  0.1660080000000  0.2860900000000 1.0  -0.11
S      3  0.4245450000000 -0.0789670000000 -0.3801490000000 1.0  -0.12
S      3  0.0443970000000 -0.0789670000000  0.3801490000000 1.0  -0.12
S      3  0.3761200000000  0.2538090000000  0.2086070000000 1.0   0.08
S      3 -0.4152730000000  0.2538090000000 -0.2086070000000 1.0   0.08
S      3 -0.4110100000000 -0.3787150000000  0.2566830000000 1.0  -0.13
S      3 -0.1543270000000 -0.3787150000000 -0.2566830000000 1.0  -0.13
Fe     4 -0.2107020000000  0.0707720000000 -0.4586240000000 1.0  -2.15
Fe     4  0.3306740000000  0.0707720000000  0.4586250000000 1.0  -2.15
Fe     4  0.3408900000000 -0.5325530000000  0.1577320000000 1.0  -1.16
Fe     4 -0.5013790000000 -0.5325530000000 -0.1577320000000 1.0  -1.16
Fe     4 -0.0745960000000  0.3997890000000 -0.1998300000000 1.0  -2.51
Fe     4 -0.2744260000000  0.3997890000000  0.1998300000000 1.0  -2.51
END
