TITL LFSO-Li4Fe2SO4-200910-160705-bbf4c0 -0.0382 133.080707 -4.58152356E+003 3.98718 4.61816 11 (C2) n - 1
REM
REM Run started: Thu, 10 Sep 2020 17:37:18 +0100 in /lustre/scratch/uccabz1/launch_tmp/launcher_2020-09-10-15-07-03-850855
REM CASTEP 20.1 from code version af48c487+ pr-geom-scf-spinfix Tue Jun 2 15:39:59 2020 +0100
REM Functional Perdew Burke Ernzerhof Relativity Koelling-Harmon Dispersion off
REM Cut-off 340.0000 eV Grid scale 1.7500 Gmax 16.5316 1/A FBSC none
REM MP grid 5 3 3 Offset 0.000 0.000 0.000 No. kpts 16 Spacing 0.07
REM Total runtime: 6089.33 s
REM Overall efficiency: 96.125 %
REM
REM
REM
REM compiler GCC version 4.9.2
REM options -cpp -iprefix /lustre/shared/ucl/apps/gcc/4.9.2/bin/../lib/gcc/x86_64-unknown-linux-gnu/4.9.2/ -mtune=corei7 -march=x86-64 -g -Og
REM COMMAND_LINE
REM seed -117918897 293760539 287587912 -1706370952 353183113 -1078702559 1674708319 -60753377 1951190856 1114735006 1629754675 652862258
REM
REM S 3|1.8|5|6|7|30:31:32(qc=5)
REM O 2|1.5|12|13|15|20:21(qc=5)
REM Li 1|1.3|8|9|10|10U:20(qc=5)
REM Fe 3|2.2|2.0|1.0|8|9|10|40:41:32(qc=5)
REM 
CELL 1.54180    3.45069    6.51066    6.86965  118.28594  100.29102   90.00000
LATT -1
SFAC Li O  S  Fe 
Li     1  0.3854450000000  0.4782580000000  0.2452820000000 1.0  -0.03
Li     1 -0.3854450000000  0.2329760000000 -0.2452820000000 1.0  -0.03
Li     1  0.0302020000000 -0.1076990000000 -0.3827300000000 1.0  -0.02
Li     1 -0.0302020000000  0.2750300000000  0.3827300000000 1.0  -0.02
O      2 -0.0796240000000 -0.3902420000000  0.3370210000000 1.0   0.08
O      2  0.0796240000000  0.2727370000000 -0.3370210000000 1.0   0.08
O      2 -0.4138960000000 -0.0318260000000 -0.1909130000000 1.0  -0.04
O      2  0.4138960000000  0.1590870000000  0.1909130000000 1.0  -0.04
S      3 -0.5000000000000 -0.0878530000000  0.0000000000000 1.0  -0.11
Fe     4 -0.1914940000000 -0.2925160000000  0.1283200000000 1.0   2.05
Fe     4  0.1914940000000 -0.4208350000000 -0.1283200000000 1.0   2.05
END
