TITL LFSO-Li2Fe2SO3-200913-093525-443c5f -0.1838 384.782883 -1.12339193E+004 15.4854 16.0271 24 (P31) n - 1
REM
REM Run started: Mon, 14 Sep 2020 05:03:16 +0100 in /lustre/scratch/uccabz1/launch_tmp/launcher_2020-09-14-03-35-27-974194
REM CASTEP 20.1 from code version af48c487+ pr-geom-scf-spinfix Tue Jun 2 15:39:59 2020 +0100
REM Functional Perdew Burke Ernzerhof Relativity Koelling-Harmon Dispersion off
REM Cut-off 340.0000 eV Grid scale 1.7500 Gmax 16.5316 1/A FBSC none
REM MP grid 5 2 2 Offset 0.000 0.000 0.000 No. kpts 10 Spacing 0.07
REM Total runtime: 67926.3 s
REM Overall efficiency: 78.8333 %
REM
REM
REM
REM compiler GCC version 4.9.2
REM options -cpp -iprefix /lustre/shared/ucl/apps/gcc/4.9.2/bin/../lib/gcc/x86_64-unknown-linux-gnu/4.9.2/ -mtune=corei7 -march=x86-64 -g -Og
REM COMMAND_LINE
REM seed 1151644002 1648548153 890670196 1159795029 1285419277 1218367591 230746014 -275737322 -376181661 275111499 -126707259 -1436711450
REM
REM S 3|1.8|5|6|7|30:31:32(qc=5)
REM O 2|1.5|12|13|15|20:21(qc=5)
REM Li 1|1.3|8|9|10|10U:20(qc=5)
REM Fe 3|2.2|2.0|1.0|8|9|10|40:41:32(qc=5)
REM 
CELL 1.54180    3.41724   11.40262   11.40262  120.00000   90.00000   90.00000
LATT -1
SFAC Li O  S  Fe 
Li     1 -0.3014440000000  0.4194050000000 -0.0455130000000 1.0  -0.03
Li     1  0.3652230000000 -0.4649180000000 -0.4194050000000 1.0  -0.03
Li     1  0.0318900000000  0.0455130000000  0.4649180000000 1.0  -0.03
Li     1  0.1358640000000  0.2215190000000 -0.0502400000000 1.0   0.01
Li     1 -0.1974690000000 -0.2717590000000 -0.2215190000000 1.0   0.01
Li     1 -0.5308020000000  0.0502400000000  0.2717590000000 1.0   0.01
O      2 -0.3775000000000  0.1607670000000 -0.1334920000000 1.0   0.31
O      2  0.2891670000000 -0.2942590000000 -0.1607670000000 1.0   0.31
O      2 -0.0441670000000  0.1334920000000  0.2942590000000 1.0   0.31
O      2  0.5450830000000 -0.0323310000000  0.3825460000000 1.0   0.27
O      2  0.2117490000000  0.4148770000000  0.0323310000000 1.0   0.27
O      2 -0.1215840000000 -0.3825460000000 -0.4148770000000 1.0   0.27
O      2  0.4028540000000  0.3516940000000  0.4223300000000 1.0   0.20
O      2  0.0695200000000  0.0706350000000 -0.3516940000000 1.0   0.20
O      2 -0.2638130000000 -0.4223300000000 -0.0706350000000 1.0   0.20
S      3 -0.2221360000000  0.4712030000000  0.2852440000000 1.0  -0.02
S      3 -0.5554700000000 -0.1859600000000 -0.4712030000000 1.0  -0.02
S      3  0.1111970000000 -0.2852440000000  0.1859600000000 1.0  -0.02
Fe     4  0.5761450000000  0.0581480000000 -0.3068790000000 1.0   2.71
Fe     4  0.2428120000000 -0.3650280000000 -0.0581480000000 1.0   2.71
Fe     4 -0.0905210000000  0.3068790000000  0.3650280000000 1.0   2.71
Fe     4 -0.0812810000000 -0.3285620000000  0.4648110000000 1.0   1.70
Fe     4  0.5853860000000 -0.2066270000000  0.3285620000000 1.0   1.70
Fe     4  0.2520520000000 -0.4648110000000  0.2066270000000 1.0   1.70
END
