TITL LFSO-Li4Fe3S3O2-200927-082214-68bb84 0.0049 365.813983 -1.03556074E+004 19.9253 20.3572 24 (I212121) n - 1
REM
REM Run started: Sun, 27 Sep 2020 18:24:28 +0100 in /lustre/scratch/uccabz1/launch_tmp/launcher_2020-09-27-07-22-13-154705
REM CASTEP 20.1 from code version af48c487+ pr-geom-scf-spinfix Tue Jun 2 15:39:59 2020 +0100
REM Functional Perdew Burke Ernzerhof Relativity Koelling-Harmon Dispersion off
REM Cut-off 340.0000 eV Grid scale 1.7500 Gmax 16.5316 1/A FBSC none
REM MP grid 3 3 3 Offset 0.000 0.000 0.000 No. kpts 8 Spacing 0.07
REM Total runtime: 36375.6 s
REM Overall efficiency: 98.375 %
REM
REM
REM
REM compiler GCC version 4.9.2
REM options -cpp -iprefix /lustre/shared/ucl/apps/gcc/4.9.2/bin/../lib/gcc/x86_64-unknown-linux-gnu/4.9.2/ -mtune=corei7 -march=x86-64 -g -Og
REM COMMAND_LINE
REM seed -2052639033 -127899046 -874907551 695908317 1423221962 -1619769872 -467895938 1451021867 564008420 -290669364 -2099482025 1415017301
REM
REM S 3|1.8|5|6|7|30:31:32(qc=5)
REM O 2|1.5|12|13|15|20:21(qc=5)
REM Li 1|1.3|8|9|10|10U:20(qc=5)
REM Fe 3|2.2|2.0|1.0|8|9|10|40:41:32(qc=5)
REM 
CELL 1.54180    7.93982    7.93982    7.93982  123.45442  107.73457   98.28625
LATT -1
SFAC Li O  S  Fe 
Li     1 -0.1757370000000 -0.1440780000000 -0.2274370000000 1.0   0.02
Li     1  0.5833590000000  0.0517000000000 -0.2725630000000 1.0   0.02
Li     1 -0.0833590000000 -0.3559220000000 -0.5316580000000 1.0   0.02
Li     1 -0.3242630000000  0.4483000000000  0.0316580000000 1.0   0.02
Li     1  0.3789950000000  0.1483990000000  0.0133110000000 1.0   0.03
Li     1 -0.3649120000000  0.3656840000000  0.4866890000000 1.0   0.03
Li     1 -0.1350880000000  0.3516010000000 -0.2694040000000 1.0   0.03
Li     1  0.1210050000000  0.1343160000000 -0.2305960000000 1.0   0.03
O      2  0.3982560000000  0.2748670000000 -0.1312160000000 1.0   0.17
O      2 -0.0939170000000 -0.4705280000000 -0.3687840000000 1.0   0.17
O      2 -0.4060830000000  0.2251330000000 -0.3766110000000 1.0   0.17
O      2  0.1017440000000 -0.0294720000000 -0.1233890000000 1.0   0.17
S      3  0.0271400000000  0.0509760000000  0.4082340000000 1.0   0.24
S      3  0.1427420000000 -0.3810930000000  0.0917660000000 1.0   0.24
S      3  0.3572580000000 -0.5509760000000  0.4761640000000 1.0   0.24
S      3 -0.5271400000000 -0.1189070000000  0.0238360000000 1.0   0.24
S      3 -0.3564090000000 -0.2500000000000 -0.6064090000000 1.0   0.20
S      3 -0.1435910000000  0.2500000000000  0.1064090000000 1.0   0.20
Fe     4  0.3858950000000 -0.4310610000000 -0.0042130000000 1.0   3.19
Fe     4  0.0731520000000  0.3901090000000  0.5042130000000 1.0   3.19
Fe     4 -0.5731520000000 -0.0689390000000  0.3169560000000 1.0   3.19
Fe     4  0.1141050000000  0.1098910000000  0.1830440000000 1.0   3.19
Fe     4  0.1488610000000 -0.2500000000000 -0.1011390000000 1.0   2.48
Fe     4  0.3511390000000  0.2500000000000 -0.3988610000000 1.0   2.48
END
