TITL LFSO-Li2Fe4S3O2-200912-033210-844f78 -0.0178 242.501377 -5.63632629E+003 -12.5106 12.7465 11 (P2/m) n - 1
REM
REM Run started: Sat, 12 Sep 2020 06:22:08 +0100 in /lustre/scratch/uccabz1/launch_tmp/launcher_2020-09-12-02-32-08-495701
REM CASTEP 20.1 from code version af48c487+ pr-geom-scf-spinfix Tue Jun 2 15:39:59 2020 +0100
REM Functional Perdew Burke Ernzerhof Relativity Koelling-Harmon Dispersion off
REM Cut-off 340.0000 eV Grid scale 1.7500 Gmax 16.5316 1/A FBSC none
REM MP grid 4 3 2 Offset 0.000 0.000 0.000 No. kpts 8 Spacing 0.07
REM Total runtime: 10622.2 s
REM Overall efficiency: 94.6667 %
REM
REM
REM
REM compiler GCC version 4.9.2
REM options -cpp -iprefix /lustre/shared/ucl/apps/gcc/4.9.2/bin/../lib/gcc/x86_64-unknown-linux-gnu/4.9.2/ -mtune=corei7 -march=x86-64 -g -Og
REM COMMAND_LINE
REM seed -1498748380 1636655823 2061351833 -1372405686 1596714928 -266986984 -1246963954 -1297806272 797976301 1292691193 -452920011 -679445713
REM
REM S 3|1.8|5|6|7|30:31:32(qc=5)
REM O 2|1.5|12|13|15|20:21(qc=5)
REM Li 1|1.3|8|9|10|10U:20(qc=5)
REM Fe 3|2.2|2.0|1.0|8|9|10|40:41:32(qc=5)
REM 
CELL 1.54180    3.88077    5.11872   12.49605   90.00000   77.66833   90.00000
LATT -1
SFAC Li O  S  Fe 
Li     1  0.0000000000000  0.2518940000000 -0.5000000000000 1.0   0.02
Li     1  0.0000000000000 -0.2518940000000 -0.5000000000000 1.0   0.02
O      2 -0.2895980000000  0.0000000000000  0.1821180000000 1.0  -0.35
O      2  0.2895980000000  0.0000000000000 -0.1821180000000 1.0  -0.35
S      3  0.0960860000000  0.0000000000000  0.3478510000000 1.0  -0.12
S      3 -0.0960860000000  0.0000000000000 -0.3478510000000 1.0  -0.12
S      3 -0.5000000000000  0.5000000000000  0.5000000000000 1.0  -0.03
Fe     4 -0.3669720000000 -0.2365110000000  0.2916870000000 1.0  -2.90
Fe     4  0.3669720000000 -0.2365110000000 -0.2916870000000 1.0  -2.90
Fe     4  0.3669720000000  0.2365110000000 -0.2916870000000 1.0  -2.90
Fe     4 -0.3669720000000  0.2365110000000  0.2916870000000 1.0  -2.90
END
