TITL LFSO-LiFe3S3O2-200909-134028-495458 -0.0569 278.796815 -9.15612753E+003 0.381403E-01 0.136054 18 (C2221) n - 1
REM
REM Run started: Thu, 10 Sep 2020 10:49:06 +0100 in /lustre/scratch/uccabz1/launch_tmp/launcher_2020-09-09-12-40-26-720973
REM CASTEP 20.1 from code version af48c487+ pr-geom-scf-spinfix Tue Jun 2 15:39:59 2020 +0100
REM Functional Perdew Burke Ernzerhof Relativity Koelling-Harmon Dispersion off
REM Cut-off 340.0000 eV Grid scale 1.7500 Gmax 16.5316 1/A FBSC none
REM MP grid 3 3 2 Offset 0.000 0.000 0.000 No. kpts 6 Spacing 0.07
REM Total runtime: 28054.5 s
REM Overall efficiency: 97.25 %
REM
REM
REM
REM compiler GCC version 4.9.2
REM options -cpp -iprefix /lustre/shared/ucl/apps/gcc/4.9.2/bin/../lib/gcc/x86_64-unknown-linux-gnu/4.9.2/ -mtune=corei7 -march=x86-64 -g -Og
REM COMMAND_LINE
REM seed -1447870290 -1787394724 1004649711 255842191 -278293260 -1835824347 -909277180 -2077326915 -426650701 309744918 206011426 372645871
REM
REM S 3|1.8|5|6|7|30:31:32(qc=5)
REM O 2|1.5|12|13|15|20:21(qc=5)
REM Li 1|1.3|8|9|10|10U:20(qc=5)
REM Fe 3|2.2|2.0|1.0|8|9|10|40:41:32(qc=5)
REM 
CELL 1.54180    5.34757    6.27640    8.72628   90.00000  107.84276   90.00000
LATT -1
SFAC Li O  S  Fe 
Li     1 -0.1836460000000  0.0000000000000 -0.3672910000000 1.0   0.00
Li     1  0.1836460000000 -0.5000000000000  0.3672910000000 1.0   0.00
O      2 -0.1814580000000  0.3015050000000 -0.3488810000000 1.0  -0.00
O      2  0.1814580000000 -0.1984950000000  0.3488810000000 1.0  -0.00
O      2  0.1674230000000  0.1984950000000  0.3488810000000 1.0  -0.00
O      2 -0.1674230000000 -0.3015050000000 -0.3488810000000 1.0  -0.00
S      3 -0.6093980000000  0.2531460000000 -0.2109500000000 1.0   0.00
S      3  0.6093980000000 -0.2468540000000  0.2109500000000 1.0   0.00
S      3 -0.3984480000000  0.2468540000000  0.2109500000000 1.0   0.00
S      3  0.3984480000000 -0.2531460000000 -0.2109500000000 1.0   0.00
S      3  0.0133050000000  0.0000000000000  0.0266100000000 1.0  -0.00
S      3 -0.0133050000000 -0.5000000000000 -0.0266100000000 1.0  -0.00
Fe     4 -0.3368730000000 -0.4983870000000 -0.2532290000000 1.0  -0.01
Fe     4  0.3368730000000  0.0016130000000  0.2532290000000 1.0  -0.01
Fe     4 -0.0836440000000 -0.0016130000000  0.2532290000000 1.0  -0.01
Fe     4  0.0836440000000  0.4983870000000 -0.2532290000000 1.0  -0.01
Fe     4 -0.2603790000000 -0.2500000000000 -0.0000000000000 1.0   0.04
Fe     4  0.2603790000000  0.2500000000000 -0.0000000000000 1.0   0.04
END
