TITL LFSO-Li3Fe3S2O4-200929-184241-9c9499 0.0719 361.170799 -1.10952520E+004 9.02115 10.7546 24 (R3) n - 1
REM
REM Run started: Wed, 30 Sep 2020 09:58:48 +0100 in /lustre/scratch/uccabz1/launch_tmp/launcher_2020-09-30-08-32-18-817560
REM CASTEP 20.1 from code version af48c487+ pr-geom-scf-spinfix Tue Jun 2 15:39:59 2020 +0100
REM Functional Perdew Burke Ernzerhof Relativity Koelling-Harmon Dispersion off
REM Cut-off 340.0000 eV Grid scale 1.7500 Gmax 16.5316 1/A FBSC none
REM MP grid 3 3 2 Offset 0.000 0.000 0.000 No. kpts 7 Spacing 0.07
REM Total runtime: 51529.5 s
REM Overall efficiency: 98.3 %
REM
REM
REM
REM compiler GCC version 4.9.2
REM options -cpp -iprefix /lustre/shared/ucl/apps/gcc/4.9.2/bin/../lib/gcc/x86_64-unknown-linux-gnu/4.9.2/ -mtune=corei7 -march=x86-64 -g -Og
REM COMMAND_LINE
REM seed 1652313229 2125792636 870110827 406311455 -1459483073 1042035699 173148720 1206842509 -745233987 1601844886 -880485194 -112084235
REM
REM S 3|1.8|5|6|7|30:31:32(qc=5)
REM O 2|1.5|12|13|15|20:21(qc=5)
REM Li 1|1.3|8|9|10|10U:20(qc=5)
REM Fe 3|2.2|2.0|1.0|8|9|10|40:41:32(qc=5)
REM 
CELL 1.54180    7.54441    7.54441    8.52402   63.73408   63.73408   60.00000
LATT -1
SFAC Li O  S  Fe 
Li     1 -0.4039790000000  0.0497360000000 -0.1851170000000 1.0   0.00
Li     1  0.0497360000000 -0.4606410000000 -0.1851170000000 1.0   0.00
Li     1 -0.4606410000000 -0.4039790000000 -0.1851170000000 1.0   0.00
Li     1  0.2878350000000 -0.5971500000000  0.2835750000000 1.0   0.02
Li     1 -0.5971500000000  0.0257390000000  0.2835750000000 1.0   0.02
Li     1  0.0257390000000  0.2878350000000  0.2835750000000 1.0   0.02
O      2  0.1559190000000 -0.0385260000000  0.3158180000000 1.0   0.40
O      2 -0.0385260000000 -0.4332120000000  0.3158180000000 1.0   0.40
O      2 -0.4332120000000  0.1559190000000  0.3158180000000 1.0   0.40
O      2  0.1214020000000  0.5627910000000  0.5536980000000 1.0   0.15
O      2  0.5627910000000 -0.2378920000000  0.5536980000000 1.0   0.15
O      2 -0.2378920000000  0.1214020000000  0.5536980000000 1.0   0.15
O      2  0.3006120000000  0.3006120000000  0.0981640000000 1.0  -0.01
O      2  0.1655110000000  0.1655110000000 -0.4965340000000 1.0   0.33
S      3  0.3446680000000 -0.0673790000000 -0.1326950000000 1.0   0.15
S      3 -0.0673790000000 -0.1445960000000 -0.1326950000000 1.0   0.15
S      3 -0.1445960000000  0.3446680000000 -0.1326950000000 1.0   0.15
S      3  0.3750220000000  0.3750220000000 -0.1250680000000 1.0   0.08
Fe     4 -0.1234020000000  0.1988020000000 -0.3236310000000 1.0   2.85
Fe     4  0.1988020000000  0.2482300000000 -0.3236310000000 1.0   2.85
Fe     4  0.2482300000000 -0.1234020000000 -0.3236310000000 1.0   2.85
Fe     4  0.0134870000000 -0.1398140000000 -0.4734560000000 1.0   2.46
Fe     4 -0.1398140000000 -0.4002180000000 -0.4734560000000 1.0   2.46
Fe     4 -0.4002180000000  0.0134870000000 -0.4734560000000 1.0   2.46
END
