TITL LFSO-Li6FeS2O2-200920-220429-14f4ef 0.0663 373.369962 -7.09218633E+003 7.99951 8.15051 22 (R3) n - 1
REM
REM Run started: Mon, 21 Sep 2020 09:43:33 +0100 in /lustre/scratch/uccabz1/launch_tmp/launcher_2020-09-21-07-51-48-298079
REM CASTEP 20.1 from code version af48c487+ pr-geom-scf-spinfix Tue Jun 2 15:39:59 2020 +0100
REM Functional Perdew Burke Ernzerhof Relativity Koelling-Harmon Dispersion off
REM Cut-off 340.0000 eV Grid scale 1.7500 Gmax 16.5316 1/A FBSC none
REM MP grid 2 2 2 Offset 0.000 0.000 0.000 No. kpts 2 Spacing 0.07
REM Total runtime: 40043.3 s
REM Overall efficiency: 93.3636 %
REM
REM
REM
REM compiler GCC version 4.9.2
REM options -cpp -iprefix /lustre/shared/ucl/apps/gcc/4.9.2/bin/../lib/gcc/x86_64-unknown-linux-gnu/4.9.2/ -mtune=corei7 -march=x86-64 -g -Og
REM COMMAND_LINE
REM seed 90108054 -322690287 664335956 -1128243999 1187032376 151394617 -1483374876 -362933921 1851079635 -1993316482 -1330884846 356281561
REM
REM S 3|1.8|5|6|7|30:31:32(qc=5)
REM O 2|1.5|12|13|15|20:21(qc=5)
REM Li 1|1.3|8|9|10|10U:20(qc=5)
REM Fe 3|2.2|2.0|1.0|8|9|10|40:41:32(qc=5)
REM 
CELL 1.54180    7.24396    7.24396    7.24396   96.01424   96.01424   96.01424
LATT -1
SFAC Li O  S  Fe 
Li     1  0.5354760000000  0.2135650000000  0.2357900000000 1.0  -0.01
Li     1  0.2357900000000  0.5354760000000  0.2135650000000 1.0  -0.01
Li     1  0.2135650000000  0.2357900000000  0.5354760000000 1.0  -0.01
Li     1 -0.4916590000000 -0.1879670000000  0.2146630000000 1.0  -0.02
Li     1  0.2146630000000 -0.4916590000000 -0.1879670000000 1.0  -0.02
Li     1 -0.1879670000000  0.2146630000000 -0.4916590000000 1.0  -0.02
Li     1 -0.1629260000000 -0.1028340000000  0.2351080000000 1.0   0.03
Li     1  0.2351080000000 -0.1629260000000 -0.1028340000000 1.0   0.03
Li     1 -0.1028340000000  0.2351080000000 -0.1629260000000 1.0   0.03
Li     1  0.0154350000000 -0.4754510000000  0.5167120000000 1.0   0.01
Li     1  0.5167120000000  0.0154350000000 -0.4754510000000 1.0   0.01
Li     1 -0.4754510000000  0.5167120000000  0.0154350000000 1.0   0.01
O      2 -0.3396680000000  0.0337250000000  0.3335110000000 1.0   0.01
O      2  0.3335110000000 -0.3396680000000  0.0337250000000 1.0   0.01
O      2  0.0337250000000  0.3335110000000 -0.3396680000000 1.0   0.01
O      2  0.3147380000000  0.3147380000000  0.3147380000000 1.0   0.27
S      3 -0.2573310000000  0.5713480000000  0.3361550000000 1.0   0.22
S      3  0.3361550000000 -0.2573310000000  0.5713480000000 1.0   0.22
S      3  0.5713480000000  0.3361550000000 -0.2573310000000 1.0   0.22
S      3 -0.1054180000000 -0.1054180000000 -0.1054180000000 1.0   0.10
Fe     4 -0.5170430000000 -0.5170430000000 -0.5170430000000 1.0   3.39
Fe     4 -0.3069590000000 -0.3069590000000 -0.3069590000000 1.0   3.47
END
