TITL LFSO-Li4Fe2S4O-200910-172700-7be4b8 -0.0517 420.181384 -4.17147073E+003 3.57286 7.76219 11 (P222) n - 1
REM
REM Run started: Fri, 11 Sep 2020 16:10:06 +0100 in /lustre/scratch/uccabz1/launch_tmp/launcher_2020-09-10-16-26-58-085337
REM CASTEP 20.1 from code version af48c487+ pr-geom-scf-spinfix Tue Jun 2 15:39:59 2020 +0100
REM Functional Perdew Burke Ernzerhof Relativity Koelling-Harmon Dispersion off
REM Cut-off 340.0000 eV Grid scale 1.7500 Gmax 16.5316 1/A FBSC none
REM MP grid 5 2 2 Offset 0.000 0.000 0.000 No. kpts 3 Spacing 0.07
REM Total runtime: 69182.8 s
REM Overall efficiency: 96.9091 %
REM
REM
REM
REM compiler GCC version 4.9.2
REM options -cpp -iprefix /lustre/shared/ucl/apps/gcc/4.9.2/bin/../lib/gcc/x86_64-unknown-linux-gnu/4.9.2/ -mtune=corei7 -march=x86-64 -g -Og
REM COMMAND_LINE
REM seed -1079692738 -17372635 -528080689 1744521457 1060622216 -2019471070 -70776571 -1327208789 -757708834 1780489467 383448386 637901535
REM
REM S 3|1.8|5|6|7|30:31:32(qc=5)
REM O 2|1.5|12|13|15|20:21(qc=5)
REM Li 1|1.3|8|9|10|10U:20(qc=5)
REM Fe 3|2.2|2.0|1.0|8|9|10|40:41:32(qc=5)
REM 
CELL 1.54180    3.30728    9.45999   13.42999   90.00000   90.00000   90.00000
LATT -1
SFAC Li O  S  Fe 
Li     1  0.8148230000000  0.3475060000000 -0.1106940000000 1.0  -0.01
Li     1  0.8148230000000 -0.3475060000000  0.1106940000000 1.0  -0.01
Li     1 -0.8148230000000 -0.3475060000000 -0.1106940000000 1.0  -0.01
Li     1 -0.8148230000000  0.3475060000000  0.1106940000000 1.0  -0.01
O      2  0.5000000000000  0.0000000000000  0.5000000000000 1.0  -1.83
S      3  0.4799460000000  0.1640840000000 -0.1667440000000 1.0   0.06
S      3  0.4799460000000 -0.1640840000000  0.1667440000000 1.0   0.06
S      3 -0.4799460000000 -0.1640840000000 -0.1667440000000 1.0   0.06
S      3 -0.4799460000000  0.1640840000000  0.1667440000000 1.0   0.06
Fe     4  0.0000000000000  0.0000000000000  0.1437200000000 1.0   2.61
Fe     4  0.0000000000000  0.0000000000000 -0.1437200000000 1.0   2.61
END
