TITL LFSO-Li4Fe2S2O3-200911-120432-04bbe0 0.0431 335.183155 -8.89784677E+003 9.97643 16.8110 22 (P3) n - 1
REM
REM Run started: Fri, 11 Sep 2020 18:36:18 +0100 in /lustre/scratch/uccabz1/launch_tmp/launcher_2020-09-11-11-04-30-306366
REM CASTEP 20.1 from code version af48c487+ pr-geom-scf-spinfix Tue Jun 2 15:39:59 2020 +0100
REM Functional Perdew Burke Ernzerhof Relativity Koelling-Harmon Dispersion off
REM Cut-off 340.0000 eV Grid scale 1.7500 Gmax 16.5316 1/A FBSC none
REM MP grid 3 3 3 Offset 0.000 0.000 0.000 No. kpts 8 Spacing 0.07
REM Total runtime: 23645 s
REM Overall efficiency: 97.625 %
REM
REM
REM
REM compiler GCC version 4.9.2
REM options -cpp -iprefix /lustre/shared/ucl/apps/gcc/4.9.2/bin/../lib/gcc/x86_64-unknown-linux-gnu/4.9.2/ -mtune=corei7 -march=x86-64 -g -Og
REM COMMAND_LINE
REM seed 1215846649 2131025398 -2075917407 -940700361 1900626291 1826022232 -2112282835 -1235608934 931020648 1332984882 -1627169103 -508290427
REM
REM S 3|1.8|5|6|7|30:31:32(qc=5)
REM O 2|1.5|12|13|15|20:21(qc=5)
REM Li 1|1.3|8|9|10|10U:20(qc=5)
REM Fe 3|2.2|2.0|1.0|8|9|10|40:41:32(qc=5)
REM 
CELL 1.54180    5.95178    8.06403    8.06403  120.00000   90.00000   90.00000
LATT -1
SFAC Li O  S  Fe 
Li     1  0.4249580000000  0.2009360000000  0.3561210000000 1.0   0.03
Li     1  0.4249580000000  0.1551850000000 -0.2009360000000 1.0   0.03
Li     1  0.4249580000000 -0.3561210000000 -0.1551850000000 1.0   0.03
Li     1 -0.2636550000000 -0.2705100000000  0.1320640000000 1.0   0.00
Li     1 -0.2636550000000  0.4025740000000  0.2705100000000 1.0   0.00
Li     1 -0.2636550000000 -0.1320640000000 -0.4025740000000 1.0   0.00
Li     1 -0.3566940000000 -0.0000000000000 -0.0000000000000 1.0   0.09
Li     1  0.0075590000000 -0.3333330000000  0.3333330000000 1.0  -0.03
O      2 -0.1777360000000 -0.1038820000000  0.3934970000000 1.0   0.44
O      2 -0.1777360000000  0.4973790000000  0.1038820000000 1.0   0.44
O      2 -0.1777360000000 -0.3934970000000 -0.4973790000000 1.0   0.44
O      2 -0.2692460000000 -0.2670000000000 -0.0996330000000 1.0   0.29
O      2 -0.2692460000000  0.1673670000000  0.2670000000000 1.0   0.29
O      2 -0.2692460000000  0.0996330000000 -0.1673670000000 1.0   0.29
S      3  0.2500650000000 -0.1916700000000  0.7045670000000 1.0  -0.07
S      3  0.2500650000000 -0.1037630000000  0.1916700000000 1.0  -0.07
S      3  0.2500650000000 -0.7045670000000  0.1037630000000 1.0  -0.07
S      3  0.1307570000000  0.3333330000000 -0.3333330000000 1.0   0.29
Fe     4 -0.0548010000000  0.0803680000000  0.3666270000000 1.0   3.59
Fe     4 -0.0548010000000  0.2862590000000 -0.0803680000000 1.0   3.59
Fe     4 -0.0548010000000 -0.3666270000000 -0.2862590000000 1.0   3.59
Fe     4  0.1367520000000 -0.0000000000000 -0.0000000000000 1.0  -3.24
END
