TITL LFSO-Li4FeSO2-200910-081001-7ea585 0.0270 237.246677 -5.68241086E+003 -8.03100 8.19896 16 (R3) n - 1
REM
REM Run started: Thu, 10 Sep 2020 10:35:25 +0100 in /lustre/scratch/uccabz1/launch_tmp/launcher_2020-09-10-07-09-59-605047
REM CASTEP 20.1 from code version af48c487+ pr-geom-scf-spinfix Tue Jun 2 15:39:59 2020 +0100
REM Functional Perdew Burke Ernzerhof Relativity Koelling-Harmon Dispersion off
REM Cut-off 340.0000 eV Grid scale 1.7500 Gmax 16.5316 1/A FBSC none
REM MP grid 3 3 3 Offset 0.000 0.000 0.000 No. kpts 6 Spacing 0.07
REM Total runtime: 8841.49 s
REM Overall efficiency: 96.1429 %
REM
REM
REM
REM compiler GCC version 4.9.2
REM options -cpp -iprefix /lustre/shared/ucl/apps/gcc/4.9.2/bin/../lib/gcc/x86_64-unknown-linux-gnu/4.9.2/ -mtune=corei7 -march=x86-64 -g -Og
REM COMMAND_LINE
REM seed 819983317 -200936078 -156152722 -1729448760 -1003393328 320824682 455053934 -1986612500 18357088 -167543647 1332548008 -1283487308
REM
REM S 3|1.8|5|6|7|30:31:32(qc=5)
REM O 2|1.5|12|13|15|20:21(qc=5)
REM Li 1|1.3|8|9|10|10U:20(qc=5)
REM Fe 3|2.2|2.0|1.0|8|9|10|40:41:32(qc=5)
REM 
CELL 1.54180    7.47792    7.47792    7.47792   51.60324   51.60324   51.60324
LATT -1
SFAC Li O  S  Fe 
Li     1 -0.1127040000000 -0.4444890000000  0.0931680000000 1.0   0.03
Li     1 -0.4444890000000  0.0931680000000 -0.1127040000000 1.0   0.03
Li     1  0.0931680000000 -0.1127040000000 -0.4444890000000 1.0   0.03
Li     1 -0.3698640000000  0.4044000000000 -0.0396650000000 1.0   0.03
Li     1  0.4044000000000 -0.0396650000000 -0.3698640000000 1.0   0.03
Li     1 -0.0396650000000 -0.3698640000000  0.4044000000000 1.0   0.03
Li     1  0.4007480000000  0.4007480000000  0.4007480000000 1.0  -0.03
Li     1  0.1560540000000  0.1560540000000  0.1560540000000 1.0   0.01
O      2  0.1453610000000 -0.1950380000000  0.3239260000000 1.0  -0.25
O      2 -0.1950380000000  0.3239260000000  0.1453610000000 1.0  -0.25
O      2  0.3239260000000  0.1453610000000 -0.1950380000000 1.0  -0.25
O      2 -0.3621590000000 -0.3621590000000 -0.3621590000000 1.0  -0.23
S      3  0.2702350000000  0.2702350000000  0.2702350000000 1.0  -0.05
S      3 -0.0714390000000 -0.0714390000000 -0.0714390000000 1.0  -0.23
Fe     4 -0.4514080000000 -0.4514080000000 -0.4514080000000 1.0  -3.22
Fe     4  0.0450140000000  0.0450140000000  0.0450140000000 1.0  -3.70
END
