TITL LFSO-Li4Fe3S2O3-200928-015910-ca1801 0.0551 192.502597 -5.31206056E+003 9.71467 10.0300 12 (P3) n - 1
REM
REM Run started: Mon, 28 Sep 2020 02:50:13 +0100 in /scratch/scratch/uccabz1/launch_tmp/launcher_2020-09-28-00-59-08-160435
REM CASTEP 19.11| from code version Version unavailable
REM Functional Perdew Burke Ernzerhof Relativity Koelling-Harmon Dispersion off
REM Cut-off 340.0000 eV Grid scale 1.7500 Gmax 16.5316 1/A FBSC none
REM MP grid 3 3 3 Offset 0.000 0.000 0.000 No. kpts 8 Spacing 0.07
REM Total runtime: 3585.86 s
REM Overall efficiency: 96 %
REM
REM
REM
REM compiler GCC version 4.9.2
REM options -cpp -iprefix /scratch/UCL/applications/gcc/4.9.2/bin/../lib/gcc/x86_64-unknown-linux-gnu/4.9.2/ -mtune=corei7 -march=x86-64 -g -O2
REM COMMAND_LINE
REM seed 1555665093 -93545899 1480421190 272748580 -582289674 -1706377524 404851002 971026658 300010943 -348488853 450401218 1748205422
REM
REM S 3|1.8|5|6|7|30:31:32(qc=5)
REM O 2|1.5|12|13|15|20:21(qc=5)
REM Li 1|1.3|8|9|10|10U:20(qc=5)
REM Fe 3|2.2|2.0|1.0|8|9|10|40:41:32(qc=5)
REM 
CELL 1.54180    5.92531    5.92531    6.33116   90.00000   90.00000  120.00000
LATT -1
SFAC Li O  S  Fe 
Li     1  0.2792080000000  0.3706360000000  0.4614910000000 1.0  -0.01
Li     1  0.0914290000000 -0.2792080000000  0.4614910000000 1.0  -0.01
Li     1 -0.3706360000000 -0.0914290000000  0.4614910000000 1.0  -0.01
Li     1 -0.3333330000000  0.3333330000000  0.4877500000000 1.0   0.04
O      2 -0.0090270000000  0.3736360000000 -0.4383740000000 1.0   0.22
O      2  0.3826630000000  0.0090270000000 -0.4383740000000 1.0   0.22
O      2 -0.3736360000000 -0.3826630000000 -0.4383740000000 1.0   0.22
S      3 -0.3333330000000  0.3333330000000  0.1127170000000 1.0   0.02
S      3  0.3333330000000 -0.3333330000000  0.0224110000000 1.0   0.04
Fe     4 -0.3956490000000 -0.4575970000000 -0.1597980000000 1.0   2.99
Fe     4 -0.0619480000000  0.3956490000000 -0.1597980000000 1.0   2.99
Fe     4  0.4575970000000  0.0619480000000 -0.1597980000000 1.0   2.99
END
