TITL LFSO-Li3Fe3S2O4-200928-202355-459ce3 -0.2594 279.617636 -11098.84257547 -0.625335E-13 0.383629E-12 24 (R3) n - 1
REM
REM Run started: Wed, 30 Sep 2020 02:11:18 +0100 in /scratch/scratch/uccabz1/launch_tmp/launcher_2020-09-28-19-23-53-295317
REM CASTEP 19.11| from code version Version unavailable
REM Functional Perdew Burke Ernzerhof Relativity Koelling-Harmon Dispersion off
REM Cut-off 340.0000 eV Grid scale 1.7500 Gmax 16.5316 1/A FBSC none
REM MP grid 3 3 3 Offset 0.000 0.000 0.000 No. kpts 6 Spacing 0.07
REM Total runtime: 66482.5 s
REM Overall efficiency: 98.8182 %
REM
REM
REM
REM compiler GCC version 4.9.2
REM options -cpp -iprefix /scratch/UCL/applications/gcc/4.9.2/bin/../lib/gcc/x86_64-unknown-linux-gnu/4.9.2/ -mtune=corei7 -march=x86-64 -g -O2
REM COMMAND_LINE
REM seed -853711502 -1340289803 821423325 -89967402 -2112932009 -335888762 187881924 -16743637 -251258172 1692383678 251658916 -1710945127
REM
REM S 3|1.8|5|6|7|30:31:32(qc=5)
REM O 2|1.5|12|13|15|20:21(qc=5)
REM Li 1|1.3|8|9|10|10U:20(qc=5)
REM Fe 3|2.2|2.0|1.0|8|9|10|40:41:32(qc=5)
REM 
CELL 1.54180    7.30263    7.30263    7.37784   60.33663   60.33663   60.00000
LATT -1
SFAC Li O  S  Fe 
Li     1  0.4724280000000  0.0545650000000  0.1780040000000 1.0
Li     1  0.0545650000000  0.2950030000000  0.1780040000000 1.0
Li     1  0.2950030000000  0.4724280000000  0.1780040000000 1.0
Li     1 -0.3262950000000  0.2781920000000  0.2561490000000 1.0
Li     1  0.2781920000000 -0.2080460000000  0.2561490000000 1.0
Li     1 -0.2080460000000 -0.3262950000000  0.2561490000000 1.0
O      2 -0.1127370000000 -0.5917230000000 -0.0095420000000 1.0
O      2 -0.5917230000000 -0.2859980000000 -0.0095420000000 1.0
O      2 -0.2859980000000 -0.1127370000000 -0.0095420000000 1.0
O      2 -0.4210030000000  0.2815680000000  0.0540750000000 1.0
O      2  0.2815680000000  0.0853600000000  0.0540750000000 1.0
O      2  0.0853600000000 -0.4210030000000  0.0540750000000 1.0
O      2 -0.4665240000000 -0.4665240000000  0.3995720000000 1.0
O      2  0.0262010000000  0.0262010000000 -0.0786040000000 1.0
S      3  0.0306030000000 -0.0419590000000  0.5770920000000 1.0
S      3 -0.0419590000000 -0.5657370000000  0.5770920000000 1.0
S      3 -0.5657370000000  0.0306030000000  0.5770920000000 1.0
S      3  0.4429900000000  0.4429900000000 -0.3289690000000 1.0
Fe     4 -0.2213880000000  0.1741080000000 -0.1929810000000 1.0
Fe     4  0.1741080000000  0.2402620000000 -0.1929810000000 1.0
Fe     4  0.2402620000000 -0.2213880000000 -0.1929810000000 1.0
Fe     4 -0.3297080000000  0.5281710000000 -0.1471300000000 1.0
Fe     4  0.5281710000000 -0.0513330000000 -0.1471300000000 1.0
Fe     4 -0.0513330000000 -0.3297080000000 -0.1471300000000 1.0
END
