TITL LFSO-LiFe3S3O2-200909-142250-c06d2c 0.0471 294.323828 -9.15437371E+003 12.9493 13.7457 18 (P2/m) n - 1
REM
REM Run started: Wed, 09 Sep 2020 23:07:07 +0100 in /lustre/scratch/uccabz1/launch_tmp/launcher_2020-09-09-13-22-47-926040
REM CASTEP 20.1 from code version af48c487+ pr-geom-scf-spinfix Tue Jun 2 15:39:59 2020 +0100
REM Functional Perdew Burke Ernzerhof Relativity Koelling-Harmon Dispersion off
REM Cut-off 340.0000 eV Grid scale 1.7500 Gmax 16.5316 1/A FBSC none
REM MP grid 3 3 2 Offset 0.000 0.000 0.000 No. kpts 5 Spacing 0.07
REM Total runtime: 31563.2 s
REM Overall efficiency: 84.8182 %
REM
REM
REM
REM compiler GCC version 4.9.2
REM options -cpp -iprefix /lustre/shared/ucl/apps/gcc/4.9.2/bin/../lib/gcc/x86_64-unknown-linux-gnu/4.9.2/ -mtune=corei7 -march=x86-64 -g -Og
REM COMMAND_LINE
REM seed 382102292 2040380245 -1070045432 -181277530 1319775305 -1881953215 339809340 306382441 -428022643 598137110 -1385494633 1088144935
REM
REM S 3|1.8|5|6|7|30:31:32(qc=5)
REM O 2|1.5|12|13|15|20:21(qc=5)
REM Li 1|1.3|8|9|10|10U:20(qc=5)
REM Fe 3|2.2|2.0|1.0|8|9|10|40:41:32(qc=5)
REM 
CELL 1.54180    6.10553    6.66272    7.53072   90.00000   90.00000  106.10466
LATT -1
SFAC Li O  S  Fe 
Li     1  0.3367370000000  0.1558100000000 -0.5000000000000 1.0  -0.01
Li     1 -0.3367370000000 -0.1558100000000 -0.5000000000000 1.0  -0.01
O      2  0.3196340000000  0.2347930000000  0.2068850000000 1.0   0.16
O      2 -0.3196340000000 -0.2347930000000  0.2068850000000 1.0   0.16
O      2 -0.3196340000000 -0.2347930000000 -0.2068850000000 1.0   0.16
O      2  0.3196340000000  0.2347930000000 -0.2068850000000 1.0   0.16
S      3 -0.2090980000000  0.2617340000000  0.1930150000000 1.0  -0.02
S      3  0.2090980000000 -0.2617340000000  0.1930150000000 1.0  -0.02
S      3  0.2090980000000 -0.2617340000000 -0.1930150000000 1.0  -0.02
S      3 -0.2090980000000  0.2617340000000 -0.1930150000000 1.0  -0.02
S      3 -0.2351720000000  0.2495370000000 -0.5000000000000 1.0   0.01
S      3  0.2351720000000 -0.2495370000000 -0.5000000000000 1.0   0.01
Fe     4 -0.1546500000000 -0.4041320000000  0.1523920000000 1.0   1.83
Fe     4  0.1546500000000  0.4041320000000  0.1523920000000 1.0   1.83
Fe     4  0.1546500000000  0.4041320000000 -0.1523920000000 1.0   1.83
Fe     4 -0.1546500000000 -0.4041320000000 -0.1523920000000 1.0   1.83
Fe     4  0.4990160000000 -0.3026610000000  0.0000000000000 1.0   2.52
Fe     4 -0.4990160000000  0.3026610000000  0.0000000000000 1.0   2.52
END
