TITL LFSO-Li3Fe3SO5-201001-215644-8cca24 0.3961 381.406208 -1.13647285E+004 -0.440232 18.3473 24 (P1) n - 1
REM
REM Run started: Fri, 02 Oct 2020 17:44:55 +0100 in /scratch/scratch/mmm0366/launch_tmp/launcher_2020-10-01-20-56-42-494568
REM CASTEP 19.11| from code version Version unavailable
REM Functional Perdew Burke Ernzerhof Relativity Koelling-Harmon Dispersion off
REM Cut-off 340.0000 eV Grid scale 1.7500 Gmax 16.5316 1/A FBSC none
REM MP grid 3 3 2 Offset 0.000 0.000 0.000 No. kpts 7 Spacing 0.07
REM Total runtime: 76906.4 s
REM Overall efficiency: 97.75 %
REM
REM
REM
REM compiler GCC version 4.9.2
REM options -cpp -iprefix /scratch/UCL/applications/gcc/4.9.2/bin/../lib/gcc/x86_64-unknown-linux-gnu/4.9.2/ -mtune=corei7 -march=x86-64 -g -O2
REM COMMAND_LINE
REM seed -499297332 840879590 763369743 -1689181450 704098711 94605511 1814087184 1401635710 1637552212 1576757189 -547818966 2044399055
REM
REM S 3|1.8|5|6|7|30:31:32(qc=5)
REM O 2|1.5|12|13|15|20:21(qc=5)
REM Li 1|1.3|8|9|10|10U:20(qc=5)
REM Fe 3|2.2|2.0|1.0|8|9|10|40:41:32(qc=5)
REM 
CELL 1.54180    7.42384    7.42384    9.06790   65.83614   65.83614   60.00000
LATT -1
SFAC Li O  S  Fe 
Li     1 -0.5001860000000 -0.2079540000000 -0.3257930000000 1.0   0.00
Li     1 -0.2079540000000  0.0339320000000 -0.3257930000000 1.0   0.00
Li     1  0.0339320000000 -0.5001860000000 -0.3257930000000 1.0   0.00
Li     1 -0.0139070000000  0.4463740000000  0.4020510000000 1.0  -0.02
Li     1  0.4463740000000  0.1654820000000  0.4020510000000 1.0  -0.02
Li     1  0.1654820000000 -0.0139070000000  0.4020510000000 1.0  -0.02
O      2  0.5427210000000  0.0342830000000 -0.1559810000000 1.0  -0.31
O      2  0.0342830000000 -0.4210230000000 -0.1559810000000 1.0  -0.31
O      2 -0.4210230000000  0.5427210000000 -0.1559810000000 1.0  -0.31
O      2 -0.1674750000000 -0.4447400000000  0.2325140000000 1.0   0.06
O      2 -0.4447400000000  0.3797000000000  0.2325140000000 1.0   0.06
O      2  0.3797000000000 -0.1674750000000  0.2325140000000 1.0   0.06
O      2  0.1983380000000  0.4034160000000 -0.5237680000000 1.0   0.20
O      2  0.4034160000000 -0.0779860000000 -0.5237680000000 1.0   0.20
O      2 -0.0779860000000  0.1983380000000 -0.5237680000000 1.0   0.20
O      2  0.3023920000000  0.3023920000000  0.0928240000000 1.0  -0.06
S      3 -0.1340000000000 -0.1340000000000  0.4019990000000 1.0   0.08
S      3  0.4833010000000  0.4833010000000 -0.4499030000000 1.0   0.15
Fe     4  0.3043300000000 -0.4003380000000  0.3608750000000 1.0   2.60
Fe     4 -0.4003380000000 -0.2648670000000  0.3608750000000 1.0   2.60
Fe     4 -0.2648670000000  0.3043300000000  0.3608750000000 1.0   2.60
Fe     4  0.4224690000000  0.0363550000000  0.0459370000000 1.0  -2.72
Fe     4  0.0363550000000 -0.5047610000000  0.0459370000000 1.0  -2.72
Fe     4 -0.5047610000000  0.4224690000000  0.0459370000000 1.0  -2.72
END
