TITL LFSO-Li5FeS3O-200910-094612-dda4a7 -0.0151 163.938659 -3.21258265E+003 3.17963 3.52706 10 (Pm) n - 1
REM
REM Run started: Thu, 10 Sep 2020 12:58:13 +0100 in /lustre/scratch/uccabz1/launch_tmp/launcher_2020-09-10-08-46-11-102854
REM CASTEP 20.1 from code version af48c487+ pr-geom-scf-spinfix Tue Jun 2 15:39:59 2020 +0100
REM Functional Perdew Burke Ernzerhof Relativity Koelling-Harmon Dispersion off
REM Cut-off 340.0000 eV Grid scale 1.7500 Gmax 16.5316 1/A FBSC none
REM MP grid 3 5 3 Offset 0.000 0.000 0.000 No. kpts 16 Spacing 0.07
REM Total runtime: 13119.8 s
REM Overall efficiency: 92.5833 %
REM
REM
REM
REM compiler GCC version 4.9.2
REM options -cpp -iprefix /lustre/shared/ucl/apps/gcc/4.9.2/bin/../lib/gcc/x86_64-unknown-linux-gnu/4.9.2/ -mtune=corei7 -march=x86-64 -g -Og
REM COMMAND_LINE
REM seed 555606730 25098424 -839867502 -1737916780 1283127842 159909850 1014529874 -7765669 652473816 -2118286678 -1371595018 990283203
REM
REM S 3|1.8|5|6|7|30:31:32(qc=5)
REM O 2|1.5|12|13|15|20:21(qc=5)
REM Li 1|1.3|8|9|10|10U:20(qc=5)
REM Fe 3|2.2|2.0|1.0|8|9|10|40:41:32(qc=5)
REM 
CELL 1.54180    8.02141    3.87554    7.20834   90.00000   90.00000  132.98085
LATT -1
SFAC Li O  S  Fe 
Li     1  0.3760320000000 -0.1452480000000 -0.1910360000000 1.0  -0.03
Li     1  0.3760320000000 -0.1452480000000  0.1910360000000 1.0  -0.03
Li     1 -0.0406780000000 -0.2293630000000 -0.2037970000000 1.0   0.03
Li     1 -0.0406780000000 -0.2293630000000  0.2037970000000 1.0   0.03
Li     1 -0.0952390000000  0.1757650000000  0.5000000000000 1.0  -0.01
O      2  0.0449210000000 -0.1452500000000 -0.5000000000000 1.0   0.20
S      3 -0.4142660000000  0.6465730000000  0.2729110000000 1.0   0.10
S      3 -0.4142660000000  0.6465730000000 -0.2729110000000 1.0   0.10
S      3  0.0576310000000 -0.5902340000000  0.0000000000000 1.0  -0.01
Fe     4  0.3506590000000  0.3055350000000 -0.5000000000000 1.0   2.78
END
