TITL LFSO-Li2Fe4S4O-200911-224627-ecb525 -0.2801 468.067601 -1.10115660E+004 -23.8807 24.4742 22 (Fmm2) n - 1
REM
REM Run started: Sat, 12 Sep 2020 21:04:58 +0100 in /lustre/scratch/uccabz1/launch_tmp/launcher_2020-09-12-10-34-12-797641
REM CASTEP 20.1 from code version af48c487+ pr-geom-scf-spinfix Tue Jun 2 15:39:59 2020 +0100
REM Functional Perdew Burke Ernzerhof Relativity Koelling-Harmon Dispersion off
REM Cut-off 340.0000 eV Grid scale 1.7500 Gmax 16.5316 1/A FBSC none
REM MP grid 3 3 3 Offset 0.000 0.000 0.000 No. kpts 8 Spacing 0.07
REM Total runtime: 83539 s
REM Overall efficiency: 98.6667 %
REM
REM
REM
REM compiler GCC version 4.9.2
REM options -cpp -iprefix /lustre/shared/ucl/apps/gcc/4.9.2/bin/../lib/gcc/x86_64-unknown-linux-gnu/4.9.2/ -mtune=corei7 -march=x86-64 -g -Og
REM COMMAND_LINE
REM seed 1003089275 -296270886 144355553 -401784022 -581923835 -1070648055 -819716767 -1781064703 405193094 -1496898964 2124198411 -570151150
REM
REM S 3|1.8|5|6|7|30:31:32(qc=5)
REM O 2|1.5|12|13|15|20:21(qc=5)
REM Li 1|1.3|8|9|10|10U:20(qc=5)
REM Fe 3|2.2|2.0|1.0|8|9|10|40:41:32(qc=5)
REM 
CELL 1.54180    9.25066    9.25066    8.23788  119.45812  119.45812   97.12929
LATT -1
SFAC Li O  S  Fe 
Li     1 -0.3894100000000 -0.1022190000000  0.2598710000000 1.0   0.01
Li     1  0.6379100000000  0.3507190000000 -0.2598710000000 1.0   0.01
Li     1 -0.1022190000000 -0.3894100000000  0.2598710000000 1.0   0.01
Li     1  0.3507190000000  0.6379100000000 -0.2598710000000 1.0   0.01
O      2 -0.2885040000000  0.3501910000000  0.0000000000000 1.0  -0.24
O      2  0.3501910000000 -0.2885040000000  0.0000000000000 1.0  -0.24
S      3 -0.4626970000000 -0.1891220000000 -0.3023650000000 1.0  -0.13
S      3  0.1132430000000 -0.1603320000000  0.3023650000000 1.0  -0.13
S      3 -0.1891220000000 -0.4626970000000 -0.3023650000000 1.0  -0.13
S      3 -0.1603320000000  0.1132430000000  0.3023650000000 1.0  -0.13
S      3 -0.1769200000000  0.0968250000000 -0.3079470000000 1.0  -0.17
S      3  0.4047720000000  0.1310270000000  0.3079470000000 1.0  -0.17
S      3  0.0968250000000 -0.1769200000000 -0.3079470000000 1.0  -0.17
S      3  0.1310270000000  0.4047720000000  0.3079470000000 1.0  -0.17
Fe     4 -0.0859490000000  0.3138650000000 -0.3332410000000 1.0  -2.88
Fe     4 -0.3528940000000  0.2472920000000  0.3332410000000 1.0  -2.88
Fe     4  0.3138650000000 -0.0859490000000 -0.3332410000000 1.0  -2.88
Fe     4  0.2472920000000 -0.3528940000000  0.3332410000000 1.0  -2.88
Fe     4 -0.1534080000000  0.3029170000000  0.2145070000000 1.0  -2.67
Fe     4  0.0884100000000 -0.3679140000000 -0.2145070000000 1.0  -2.67
Fe     4  0.3029170000000 -0.1534080000000  0.2145070000000 1.0  -2.67
Fe     4 -0.3679140000000  0.0884100000000 -0.2145070000000 1.0  -2.67
END
