TITL LFSO-Li2Fe3S3O-200912-162547-45cf44 0.0662 345.471640 -8.67991128E+003 -22.2722 22.5026 18 (R3) n - 1
REM
REM Run started: Sun, 13 Sep 2020 05:05:21 +0100 in /lustre/scratch/uccabz1/launch_tmp/launcher_2020-09-12-15-25-45-780920
REM CASTEP 20.1 from code version af48c487+ pr-geom-scf-spinfix Tue Jun 2 15:39:59 2020 +0100
REM Functional Perdew Burke Ernzerhof Relativity Koelling-Harmon Dispersion off
REM Cut-off 340.0000 eV Grid scale 1.7500 Gmax 16.5316 1/A FBSC none
REM MP grid 3 3 3 Offset 0.000 0.000 0.000 No. kpts 6 Spacing 0.07
REM Total runtime: 45738.5 s
REM Overall efficiency: 97.8889 %
REM
REM
REM
REM compiler GCC version 4.9.2
REM options -cpp -iprefix /lustre/shared/ucl/apps/gcc/4.9.2/bin/../lib/gcc/x86_64-unknown-linux-gnu/4.9.2/ -mtune=corei7 -march=x86-64 -g -Og
REM COMMAND_LINE
REM seed 1948114532 -63176245 -1730241297 -375211355 -1060150659 507278054 844953775 -585210081 1541994847 529592823 1124448231 2058699151
REM
REM S 3|1.8|5|6|7|30:31:32(qc=5)
REM O 2|1.5|12|13|15|20:21(qc=5)
REM Li 1|1.3|8|9|10|10U:20(qc=5)
REM Fe 3|2.2|2.0|1.0|8|9|10|40:41:32(qc=5)
REM 
CELL 1.54180    7.43306    7.43306    7.43306   69.03940   69.03940   69.03940
LATT -1
SFAC Li O  S  Fe 
Li     1 -0.1930770000000 -0.2275490000000  0.4387100000000 1.0   0.02
Li     1 -0.2275490000000  0.4387100000000 -0.1930770000000 1.0   0.02
Li     1  0.4387100000000 -0.1930770000000 -0.2275490000000 1.0   0.02
Li     1  0.1318190000000  0.1318190000000  0.1318190000000 1.0  -0.05
O      2  0.2524530000000  0.2524530000000  0.2524530000000 1.0  -0.30
O      2 -0.2674370000000 -0.2674370000000 -0.2674370000000 1.0  -0.31
S      3 -0.2271680000000  0.1221040000000  0.3320890000000 1.0  -0.23
S      3  0.1221040000000  0.3320890000000 -0.2271680000000 1.0  -0.23
S      3  0.3320890000000 -0.2271680000000  0.1221040000000 1.0  -0.23
S      3 -0.1332050000000 -0.3822740000000  0.1770170000000 1.0  -0.34
S      3 -0.3822740000000  0.1770170000000 -0.1332050000000 1.0  -0.34
S      3  0.1770170000000 -0.1332050000000 -0.3822740000000 1.0  -0.34
Fe     4 -0.3541960000000 -0.1697390000000 -0.0028900000000 1.0  -3.31
Fe     4 -0.1697390000000 -0.0028900000000 -0.3541960000000 1.0  -3.31
Fe     4 -0.0028900000000 -0.3541960000000 -0.1697390000000 1.0  -3.31
Fe     4  0.5382940000000  0.1588420000000  0.1948290000000 1.0  -3.35
Fe     4  0.1588420000000  0.1948290000000  0.5382940000000 1.0  -3.35
Fe     4  0.1948290000000  0.5382940000000  0.1588420000000 1.0  -3.35
END
