TITL LFSO-Li4Fe3S2O3-201001-205631-9fe052 -0.1701 324.549191 -5.31043708E+003 12.0000 12.2219 12 (P3m1) n - 1
REM
REM Run started: Thu, 01 Oct 2020 23:24:50 +0100 in /lustre/scratch/uccabz1/launch_tmp/launcher_2020-10-01-19-56-29-886779
REM CASTEP 20.1 from code version af48c487+ pr-geom-scf-spinfix Tue Jun 2 15:39:59 2020 +0100
REM Functional Perdew Burke Ernzerhof Relativity Koelling-Harmon Dispersion off
REM Cut-off 340.0000 eV Grid scale 1.7500 Gmax 16.5316 1/A FBSC none
REM MP grid 3 3 2 Offset 0.000 0.000 0.000 No. kpts 4 Spacing 0.07
REM Total runtime: 9674.84 s
REM Overall efficiency: 87.4615 %
REM
REM
REM
REM compiler GCC version 4.9.2
REM options -cpp -iprefix /lustre/shared/ucl/apps/gcc/4.9.2/bin/../lib/gcc/x86_64-unknown-linux-gnu/4.9.2/ -mtune=corei7 -march=x86-64 -g -Og
REM COMMAND_LINE
REM seed 1403629010 1793054430 707142236 -1352517274 1697590769 -441835806 -386729649 1466714263 -1323114155 280907515 292933744 -4667366
REM
REM S 3|1.8|5|6|7|30:31:32(qc=5)
REM O 2|1.5|12|13|15|20:21(qc=5)
REM Li 1|1.3|8|9|10|10U:20(qc=5)
REM Fe 3|2.2|2.0|1.0|8|9|10|40:41:32(qc=5)
REM 
CELL 1.54180    6.12901    6.12901    9.97630   90.00000   90.00000  120.00000
LATT -1
SFAC Li O  S  Fe 
Li     1 -0.3751090000000 -0.1875550000000  0.1663920000000 1.0  -0.05
Li     1  0.1875550000000  0.3751090000000  0.1663920000000 1.0  -0.05
Li     1  0.1875550000000 -0.1875550000000  0.1663920000000 1.0  -0.05
Li     1 -0.3333330000000  0.3333330000000  0.1279120000000 1.0   0.06
O      2 -0.4899970000000  0.0200050000000  0.2401700000000 1.0   0.32
O      2  0.5100030000000  0.4899970000000  0.2401700000000 1.0   0.32
O      2 -0.0200050000000 -0.5100030000000  0.2401700000000 1.0   0.32
S      3  0.0000000000000 -0.0000000000000 -0.5280090000000 1.0   0.19
S      3  0.0000000000000 -0.0000000000000  0.0631660000000 1.0   0.37
Fe     4 -0.1879940000000  0.1879940000000  0.3500740000000 1.0   3.53
Fe     4  0.3759880000000  0.1879940000000  0.3500740000000 1.0   3.53
Fe     4 -0.1879940000000 -0.3759880000000  0.3500740000000 1.0   3.53
END
