TITL LFSO-LiFe3S4O-200909-085505-a258ad 0.0260 337.825523 -8.88293885E+003 3.02895 5.64595 18 (Pma2) n - 1
REM
REM Run started: Wed, 09 Sep 2020 14:23:40 +0100 in /lustre/scratch/uccabz1/launch_tmp/launcher_2020-09-09-07-55-03-990549
REM CASTEP 20.1 from code version af48c487+ pr-geom-scf-spinfix Tue Jun 2 15:39:59 2020 +0100
REM Functional Perdew Burke Ernzerhof Relativity Koelling-Harmon Dispersion off
REM Cut-off 340.0000 eV Grid scale 1.7500 Gmax 16.5316 1/A FBSC none
REM MP grid 3 3 2 Offset 0.000 0.000 0.000 No. kpts 4 Spacing 0.07
REM Total runtime: 19845.2 s
REM Overall efficiency: 96.7143 %
REM
REM
REM
REM compiler GCC version 4.9.2
REM options -cpp -iprefix /lustre/shared/ucl/apps/gcc/4.9.2/bin/../lib/gcc/x86_64-unknown-linux-gnu/4.9.2/ -mtune=corei7 -march=x86-64 -g -Og
REM COMMAND_LINE
REM seed -1883010249 602595947 -1123683806 445758279 539219867 1870081202 -874571564 -2104847518 -2066352962 1585561752 1929959408 650991408
REM
REM S 3|1.8|5|6|7|30:31:32(qc=5)
REM O 2|1.5|12|13|15|20:21(qc=5)
REM Li 1|1.3|8|9|10|10U:20(qc=5)
REM Fe 3|2.2|2.0|1.0|8|9|10|40:41:32(qc=5)
REM 
CELL 1.54180    6.94412    6.70518    7.25545   90.00000   90.00000   90.00000
LATT -1
SFAC Li O  S  Fe 
Li     1 -0.0146070000000  0.2500000000000 -0.2654820000000 1.0  -0.01
Li     1  0.0146070000000 -0.2500000000000 -0.2654820000000 1.0  -0.01
O      2 -0.1644050000000  0.2500000000000 -0.5110000000000 1.0  -0.05
O      2  0.1644050000000 -0.2500000000000 -0.5110000000000 1.0  -0.05
S      3  0.2100180000000 -0.0272550000000  0.3596320000000 1.0  -0.05
S      3 -0.2100180000000  0.0272550000000  0.3596320000000 1.0  -0.05
S      3 -0.2100180000000 -0.5272550000000  0.3596320000000 1.0  -0.05
S      3  0.2100180000000  0.5272550000000  0.3596320000000 1.0  -0.05
S      3  0.2187930000000  0.0084430000000 -0.1112300000000 1.0   0.03
S      3 -0.2187930000000 -0.0084430000000 -0.1112300000000 1.0   0.03
S      3 -0.2187930000000 -0.4915570000000 -0.1112300000000 1.0   0.03
S      3  0.2187930000000  0.4915570000000 -0.1112300000000 1.0   0.03
Fe     4  0.3702210000000 -0.4363400000000  0.1242460000000 1.0  -0.18
Fe     4 -0.3702210000000  0.4363400000000  0.1242460000000 1.0  -0.18
Fe     4 -0.3702210000000  0.0636600000000  0.1242460000000 1.0  -0.18
Fe     4  0.3702210000000 -0.0636600000000  0.1242460000000 1.0  -0.18
Fe     4  0.0000000000000 -0.0000000000000  0.1167080000000 1.0   1.99
Fe     4  0.0000000000000 -0.5000000000000  0.1167080000000 1.0   1.99
END
