TITL LFSO-Li2Fe2S2O-200913-123033-5ebdcb 0.0689 98.652244 -3.16971397E+003 -0.207710 1.23506 7 (P3m1) n - 1
REM
REM Run started: Sun, 13 Sep 2020 13:55:24 +0100 in /lustre/scratch/uccabz1/launch_tmp/launcher_2020-09-13-11-30-32-317449
REM CASTEP 20.1 from code version af48c487+ pr-geom-scf-spinfix Tue Jun 2 15:39:59 2020 +0100
REM Functional Perdew Burke Ernzerhof Relativity Koelling-Harmon Dispersion off
REM Cut-off 340.0000 eV Grid scale 1.7500 Gmax 16.5316 1/A FBSC none
REM MP grid 5 5 2 Offset 0.000 0.000 0.000 No. kpts 7 Spacing 0.07
REM Total runtime: 5166.65 s
REM Overall efficiency: 73.6667 %
REM
REM
REM
REM compiler GCC version 4.9.2
REM options -cpp -iprefix /lustre/shared/ucl/apps/gcc/4.9.2/bin/../lib/gcc/x86_64-unknown-linux-gnu/4.9.2/ -mtune=corei7 -march=x86-64 -g -Og
REM COMMAND_LINE
REM seed 1404718838 861140529 61958507 -131527641 1459333059 183404417 -77807238 -638738555 1215881292 -48222607 763899578 -1726683726
REM
REM S 3|1.8|5|6|7|30:31:32(qc=5)
REM O 2|1.5|12|13|15|20:21(qc=5)
REM Li 1|1.3|8|9|10|10U:20(qc=5)
REM Fe 3|2.2|2.0|1.0|8|9|10|40:41:32(qc=5)
REM 
CELL 1.54180    3.46278    3.46278    9.50007   90.00000   90.00000  120.00000
LATT -1
SFAC Li O  S  Fe 
Li     1  0.3333330000000 -0.3333330000000 -0.5047370000000 1.0  -0.02
Li     1 -0.3333330000000  0.3333330000000  0.2688600000000 1.0  -0.03
O      2  0.0000000000000  0.0000000000000 -0.1446980000000 1.0  -0.04
S      3  0.0000000000000  0.0000000000000  0.4296530000000 1.0  -0.10
S      3  0.3333330000000 -0.3333330000000  0.0926760000000 1.0  -0.07
Fe     4  0.3333330000000 -0.3333330000000 -0.1328080000000 1.0  -0.17
Fe     4  0.0000000000000  0.0000000000000 -0.3298650000000 1.0   0.22
END
