TITL LFSO-Li4Fe2S3O2-200911-094555-044b4e -0.0946 339.241018 -8626.759021406 9.91278 10.5253 22 (R3) n - 1
REM
REM Run started: Sat, 12 Sep 2020 11:01:57 +0100 in /lustre/scratch/uccabz1/launch_tmp/launcher_2020-09-11-08-45-53-041743
REM CASTEP 20.1 from code version af48c487+ pr-geom-scf-spinfix Tue Jun 2 15:39:59 2020 +0100
REM Functional Perdew Burke Ernzerhof Relativity Koelling-Harmon Dispersion off
REM Cut-off 340.0000 eV Grid scale 1.7500 Gmax 16.5316 1/A FBSC none
REM MP grid 3 3 3 Offset 0.000 0.000 0.000 No. kpts 6 Spacing 0.07
REM Total runtime: 90949.5 s
REM Overall efficiency: 98.7273 %
REM
REM
REM
REM compiler GCC version 4.9.2
REM options -cpp -iprefix /lustre/shared/ucl/apps/gcc/4.9.2/bin/../lib/gcc/x86_64-unknown-linux-gnu/4.9.2/ -mtune=corei7 -march=x86-64 -g -Og
REM COMMAND_LINE
REM seed 287080377 -1668600077 -849216272 -1194103816 -1435310871 -1173714070 1459090683 -1341193720 -157342660 1341058814 -1643134090 -1015880816
REM
REM S 3|1.8|5|6|7|30:31:32(qc=5)
REM O 2|1.5|12|13|15|20:21(qc=5)
REM Li 1|1.3|8|9|10|10U:20(qc=5)
REM Fe 3|2.2|2.0|1.0|8|9|10|40:41:32(qc=5)
REM 
CELL 1.54180    7.34841    7.34841    7.34841   70.08206   70.08206   70.08206
LATT -1
SFAC Li O  S  Fe 
Li     1 -0.5392310000000  0.0811490000000  0.4424990000000 1.0  -0.01
Li     1  0.4424990000000 -0.5392310000000  0.0811490000000 1.0  -0.01
Li     1  0.0811490000000  0.4424990000000 -0.5392310000000 1.0  -0.01
Li     1 -0.4414710000000 -0.1256040000000  0.1938050000000 1.0   0.02
Li     1  0.1938050000000 -0.4414710000000 -0.1256040000000 1.0   0.02
Li     1 -0.1256040000000  0.1938050000000 -0.4414710000000 1.0   0.02
Li     1 -0.5787520000000 -0.5787520000000 -0.5787520000000 1.0   0.07
Li     1 -0.4181740000000 -0.4181740000000 -0.4181740000000 1.0   0.01
O      2 -0.3423230000000 -0.1774470000000  0.4294840000000 1.0   0.14
O      2  0.4294840000000 -0.3423230000000 -0.1774470000000 1.0   0.14
O      2 -0.1774470000000  0.4294840000000 -0.3423230000000 1.0   0.14
O      2  0.3148210000000  0.3148210000000  0.3148210000000 1.0   0.03
S      3 -0.3864000000000  0.0236750000000 -0.2255840000000 1.0   0.05
S      3 -0.2255840000000 -0.3864000000000  0.0236750000000 1.0   0.05
S      3  0.0236750000000 -0.2255840000000 -0.3864000000000 1.0   0.05
S      3 -0.1946460000000  0.2079370000000  0.2375200000000 1.0   0.04
S      3  0.2375200000000 -0.1946460000000  0.2079370000000 1.0   0.04
S      3  0.2079370000000  0.2375200000000 -0.1946460000000 1.0   0.04
Fe     4 -0.0915260000000 -0.1208820000000  0.3509300000000 1.0   2.63
Fe     4  0.3509300000000 -0.0915260000000 -0.1208820000000 1.0   2.63
Fe     4 -0.1208820000000  0.3509300000000 -0.0915260000000 1.0   2.63
Fe     4 -0.2804210000000 -0.2804210000000 -0.2804210000000 1.0   1.08
END
