TITL LFSO-Li3Fe3S2O4-200928-162208-cf485b -0.0271 351.718234 -1.11004283E+004 19.7394 20.0914 24 (C2) n - 1
REM
REM Run started: Wed, 30 Sep 2020 02:41:34 +0100 in /lustre/scratch/uccabz1/launch_tmp/launcher_2020-09-29-05-23-11-015737
REM CASTEP 20.1 from code version af48c487+ pr-geom-scf-spinfix Tue Jun 2 15:39:59 2020 +0100
REM Functional Perdew Burke Ernzerhof Relativity Koelling-Harmon Dispersion off
REM Cut-off 340.0000 eV Grid scale 1.7500 Gmax 16.5316 1/A FBSC none
REM MP grid 4 3 2 Offset 0.000 0.000 0.000 No. kpts 12 Spacing 0.07
REM Total runtime: 94297.6 s
REM Overall efficiency: 98.5385 %
REM
REM
REM
REM compiler GCC version 4.9.2
REM options -cpp -iprefix /lustre/shared/ucl/apps/gcc/4.9.2/bin/../lib/gcc/x86_64-unknown-linux-gnu/4.9.2/ -mtune=corei7 -march=x86-64 -g -Og
REM COMMAND_LINE
REM seed -1652618890 -2125566650 1791952633 -1509383543 -2131066806 -953257344 -1311102411 877299177 -1047451153 2017125156 -1956946662 934778946
REM
REM S 3|1.8|5|6|7|30:31:32(qc=5)
REM O 2|1.5|12|13|15|20:21(qc=5)
REM Li 1|1.3|8|9|10|10U:20(qc=5)
REM Fe 3|2.2|2.0|1.0|8|9|10|40:41:32(qc=5)
REM 
CELL 1.54180    5.12617    6.14843   12.56720   81.77939   78.23193   65.36293
LATT -1
SFAC Li O  S  Fe 
Li     1  0.3072520000000  0.1056850000000 -0.3035730000000 1.0  -0.01
Li     1  0.1093640000000 -0.1056850000000  0.3035730000000 1.0  -0.01
Li     1  0.4117620000000 -0.4622270000000 -0.0905000000000 1.0  -0.01
Li     1 -0.1409660000000  0.4622270000000  0.0905000000000 1.0  -0.01
Li     1  0.1309060000000  0.4562260000000  0.4015850000000 1.0   0.01
Li     1 -0.0112820000000 -0.4562260000000 -0.4015850000000 1.0   0.01
O      2 -0.0227660000000 -0.2309220000000  0.4693720000000 1.0   0.11
O      2  0.2156840000000  0.2309220000000 -0.4693720000000 1.0   0.11
O      2 -0.6880180000000 -0.0197870000000  0.1749090000000 1.0   0.36
O      2 -0.5328960000000  0.0197870000000 -0.1749090000000 1.0   0.36
O      2 -0.4332750000000 -0.3141690000000  0.0130380000000 1.0   0.37
O      2  0.2655950000000  0.3141690000000 -0.0130380000000 1.0   0.37
O      2 -0.1533510000000  0.1583750000000  0.0672070000000 1.0   0.18
O      2  0.0722320000000 -0.1583750000000 -0.0672070000000 1.0   0.18
S      3 -0.2372790000000  0.2589740000000  0.3972730000000 1.0   0.14
S      3  0.4189680000000 -0.2589740000000 -0.3972730000000 1.0   0.14
S      3  0.1306780000000 -0.4382610000000  0.2006150000000 1.0   0.20
S      3 -0.1069680000000  0.4382610000000 -0.2006150000000 1.0   0.20
Fe     4  0.1897180000000 -0.1339870000000  0.0768040000000 1.0   2.29
Fe     4  0.1325350000000  0.1339870000000 -0.0768040000000 1.0   2.29
Fe     4  0.0847140000000  0.0037090000000  0.5073570000000 1.0   2.52
Fe     4 -0.4042200000000 -0.0037090000000 -0.5073570000000 1.0   2.52
Fe     4 -0.2269420000000 -0.2164110000000 -0.1113130000000 1.0   3.72
Fe     4 -0.5546660000000  0.2164110000000  0.1113130000000 1.0   3.72
END
