TITL LFSO-Li3Fe3SO5-200926-072443-218e7b 0.0082 331.141092 -1.13609978E+004 21.9380 22.3020 24 (P-4) n - 1
REM
REM Run started: Sat, 26 Sep 2020 21:34:00 +0100 in /lustre/scratch/uccabz1/launch_tmp/launcher_2020-09-26-06-24-40-306754
REM CASTEP 20.1 from code version af48c487+ pr-geom-scf-spinfix Tue Jun 2 15:39:59 2020 +0100
REM Functional Perdew Burke Ernzerhof Relativity Koelling-Harmon Dispersion off
REM Cut-off 340.0000 eV Grid scale 1.7500 Gmax 16.5316 1/A FBSC none
REM MP grid 3 3 2 Offset 0.000 0.000 0.000 No. kpts 3 Spacing 0.07
REM Total runtime: 54706 s
REM Overall efficiency: 97.9167 %
REM
REM
REM
REM compiler GCC version 4.9.2
REM options -cpp -iprefix /lustre/shared/ucl/apps/gcc/4.9.2/bin/../lib/gcc/x86_64-unknown-linux-gnu/4.9.2/ -mtune=corei7 -march=x86-64 -g -Og
REM COMMAND_LINE
REM seed 1677267291 1855906150 70095322 -1407054206 -1068294084 1765223384 1052094596 684478759 -879540176 1509959512 -1171012258 287138354
REM
REM S 3|1.8|5|6|7|30:31:32(qc=5)
REM O 2|1.5|12|13|15|20:21(qc=5)
REM Li 1|1.3|8|9|10|10U:20(qc=5)
REM Fe 3|2.2|2.0|1.0|8|9|10|40:41:32(qc=5)
REM 
CELL 1.54180    5.87306    5.87306    9.60028   90.00000   90.00000   90.00000
LATT -1
SFAC Li O  S  Fe 
Li     1  0.2882710000000  0.0450910000000  0.4689560000000 1.0  -0.02
Li     1 -0.2882710000000 -0.0450910000000  0.4689560000000 1.0  -0.02
Li     1  0.0450910000000 -0.2882710000000 -0.4689560000000 1.0  -0.02
Li     1 -0.0450910000000  0.2882710000000 -0.4689560000000 1.0  -0.02
Li     1  0.5000000000000  0.0000000000000  0.2339040000000 1.0  -0.03
Li     1  0.0000000000000 -0.5000000000000 -0.2339040000000 1.0  -0.03
O      2  0.2210520000000  0.2768500000000  0.2043180000000 1.0   0.18
O      2 -0.2210520000000 -0.2768500000000  0.2043180000000 1.0   0.18
O      2  0.2768500000000 -0.2210520000000 -0.2043180000000 1.0   0.18
O      2 -0.2768500000000  0.2210520000000 -0.2043180000000 1.0   0.18
O      2  0.2283450000000 -0.5646050000000 -0.4184580000000 1.0   0.29
O      2 -0.2283450000000  0.5646050000000 -0.4184580000000 1.0   0.29
O      2 -0.5646050000000 -0.2283450000000  0.4184580000000 1.0   0.29
O      2  0.5646050000000  0.2283450000000  0.4184580000000 1.0   0.29
O      2  0.0000000000000  0.0000000000000 -0.3754600000000 1.0   0.02
O      2  0.0000000000000  0.0000000000000  0.3754600000000 1.0   0.02
S      3  0.0000000000000 -0.0000000000000  0.2081900000000 1.0   0.11
S      3  0.0000000000000  0.0000000000000 -0.2081900000000 1.0   0.11
Fe     4  0.2986210000000 -0.5254070000000  0.3682310000000 1.0   3.38
Fe     4 -0.2986210000000  0.5254070000000  0.3682310000000 1.0   3.38
Fe     4 -0.5254070000000 -0.2986210000000 -0.3682310000000 1.0   3.38
Fe     4  0.5254070000000  0.2986210000000 -0.3682310000000 1.0   3.38
Fe     4  0.5000000000000  0.0000000000000 -0.1921940000000 1.0   3.18
Fe     4  0.0000000000000  0.5000000000000  0.1921940000000 1.0   3.18
END
