TITL LFSO-Li4Fe3S4O-200925-201829-558885 -0.0232 218.712461 -5.04230201E+003 -8.88659 9.40772 12 (P4) n - 1
REM
REM Run started: Sat, 26 Sep 2020 03:52:25 +0100 in /lustre/scratch/uccabz1/launch_tmp/launcher_2020-09-25-19-18-27-736961
REM CASTEP 20.1 from code version af48c487+ pr-geom-scf-spinfix Tue Jun 2 15:39:59 2020 +0100
REM Functional Perdew Burke Ernzerhof Relativity Koelling-Harmon Dispersion off
REM Cut-off 340.0000 eV Grid scale 1.7500 Gmax 16.5316 1/A FBSC none
REM MP grid 3 3 3 Offset 0.000 0.000 0.000 No. kpts 6 Spacing 0.07
REM Total runtime: 28102.2 s
REM Overall efficiency: 97.8333 %
REM
REM
REM
REM compiler GCC version 4.9.2
REM options -cpp -iprefix /lustre/shared/ucl/apps/gcc/4.9.2/bin/../lib/gcc/x86_64-unknown-linux-gnu/4.9.2/ -mtune=corei7 -march=x86-64 -g -Og
REM COMMAND_LINE
REM seed 1139725514 152204252 -703604185 -962342425 -1650153643 86382859 715431668 967985593 -196695672 -1108942257 -922773299 231459381
REM
REM S 3|1.8|5|6|7|30:31:32(qc=5)
REM O 2|1.5|12|13|15|20:21(qc=5)
REM Li 1|1.3|8|9|10|10U:20(qc=5)
REM Fe 3|2.2|2.0|1.0|8|9|10|40:41:32(qc=5)
REM 
CELL 1.54180    6.75641    6.75641    4.79117   90.00000   90.00000   90.00000
LATT -1
SFAC Li O  S  Fe 
Li     1  0.3231870000000  0.2961530000000  0.4194240000000 1.0   0.08
Li     1 -0.3231870000000 -0.2961530000000  0.4194240000000 1.0   0.08
Li     1 -0.2961530000000  0.3231870000000  0.4194240000000 1.0   0.08
Li     1  0.2961530000000 -0.3231870000000  0.4194240000000 1.0   0.08
O      2  0.5000000000000 -0.5000000000000 -0.5860780000000 1.0  -0.08
S      3 -0.2336400000000 -0.2327190000000 -0.0876720000000 1.0  -0.06
S      3  0.2336400000000  0.2327190000000 -0.0876720000000 1.0  -0.06
S      3  0.2327190000000 -0.2336400000000 -0.0876720000000 1.0  -0.06
S      3 -0.2327190000000  0.2336400000000 -0.0876720000000 1.0  -0.06
Fe     4  0.0000000000000 -0.5000000000000 -0.1087020000000 1.0  -3.19
Fe     4 -0.5000000000000  0.0000000000000 -0.1087020000000 1.0  -3.19
Fe     4  0.0000000000000  0.0000000000000 -0.1390430000000 1.0  -2.52
END
