TITL LFSO-Li2Fe4S2O3-200912-075454-8661b2 -0.0020 188.223815 -5.77322869E+003 -8.72030 9.14055 11 (Pm) n - 1
REM
REM Run started: Sat, 12 Sep 2020 14:05:39 +0100 in /lustre/scratch/uccabz1/launch_tmp/launcher_2020-09-12-06-54-52-369733
REM CASTEP 20.1 from code version af48c487+ pr-geom-scf-spinfix Tue Jun 2 15:39:59 2020 +0100
REM Functional Perdew Burke Ernzerhof Relativity Koelling-Harmon Dispersion off
REM Cut-off 340.0000 eV Grid scale 1.7500 Gmax 16.5316 1/A FBSC none
REM MP grid 5 2 3 Offset 0.000 0.000 0.000 No. kpts 8 Spacing 0.07
REM Total runtime: 23212 s
REM Overall efficiency: 84.9167 %
REM
REM
REM
REM compiler GCC version 4.9.2
REM options -cpp -iprefix /lustre/shared/ucl/apps/gcc/4.9.2/bin/../lib/gcc/x86_64-unknown-linux-gnu/4.9.2/ -mtune=corei7 -march=x86-64 -g -Og
REM COMMAND_LINE
REM seed 622183136 1481323781 -1001135595 -1745512362 -157734571 -655797113 2084429908 1669894851 1978627201 -1661007111 -1130446687 1486447889
REM
REM S 3|1.8|5|6|7|30:31:32(qc=5)
REM O 2|1.5|12|13|15|20:21(qc=5)
REM Li 1|1.3|8|9|10|10U:20(qc=5)
REM Fe 3|2.2|2.0|1.0|8|9|10|40:41:32(qc=5)
REM 
CELL 1.54180    3.44118    8.16248    6.95111   90.00000  105.41385   90.00000
LATT -1
SFAC Li O  S  Fe 
Li     1  0.4896500000000 -0.3506000000000 -0.0154700000000 1.0   0.02
Li     1  0.4896500000000  0.3506000000000 -0.0154700000000 1.0   0.02
O      2 -0.3802260000000  0.2838610000000  0.2535110000000 1.0  -0.27
O      2 -0.3802260000000 -0.2838610000000  0.2535110000000 1.0  -0.27
O      2  0.0231210000000 -0.5000000000000  0.0726510000000 1.0  -0.16
S      3  0.3025160000000  0.2457240000000 -0.3832320000000 1.0   0.07
S      3  0.3025160000000 -0.2457240000000 -0.3832320000000 1.0   0.07
Fe     4  0.1386300000000 -0.3374830000000  0.2860460000000 1.0  -2.57
Fe     4  0.1386300000000  0.3374830000000  0.2860460000000 1.0  -2.57
Fe     4 -0.1378980000000  0.1217680000000 -0.2710450000000 1.0  -1.54
Fe     4 -0.1378980000000 -0.1217680000000 -0.2710450000000 1.0  -1.54
END
