TITL LFSO-Li3Fe3S4O2-200929-172540-f6766b 0.0583 231.418695 -5.28040078E+003 -11.9992 12.1386 12 (F222) n - 1
REM
REM Run started: Tue, 29 Sep 2020 22:16:41 +0100 in /scratch/scratch/uccabz1/launch_tmp/launcher_2020-09-29-16-25-38-284178
REM CASTEP 19.11| from code version Version unavailable
REM Functional Perdew Burke Ernzerhof Relativity Koelling-Harmon Dispersion off
REM Cut-off 340.0000 eV Grid scale 1.7500 Gmax 16.5316 1/A FBSC none
REM MP grid 3 3 2 Offset 0.000 0.000 0.000 No. kpts 6 Spacing 0.07
REM Total runtime: 17538.9 s
REM Overall efficiency: 96.8889 %
REM
REM
REM
REM compiler GCC version 4.9.2
REM options -cpp -iprefix /scratch/UCL/applications/gcc/4.9.2/bin/../lib/gcc/x86_64-unknown-linux-gnu/4.9.2/ -mtune=corei7 -march=x86-64 -g -O2
REM COMMAND_LINE
REM seed -1434708570 1048269853 -1726098267 -493050637 -1528555534 46068318 455082738 539728141 -1617245328 -1625227789 -1923297567 -615235178
REM
REM S 3|1.8|5|6|7|30:31:32(qc=5)
REM O 2|1.5|12|13|15|20:21(qc=5)
REM Li 1|1.3|8|9|10|10U:20(qc=5)
REM Fe 3|2.2|2.0|1.0|8|9|10|40:41:32(qc=5)
REM 
CELL 1.54180    5.29795    5.29795    9.48640  110.40953  110.40953   75.59048
LATT -1
SFAC Li O  S  Fe 
Li     1  0.2684460000000  0.2684460000000 -0.4631080000000 1.0   0.04
Li     1 -0.2684460000000 -0.2684460000000  0.4631080000000 1.0   0.04
Li     1 -0.5000000000000 -0.5000000000000  0.0000000000000 1.0  -0.03
O      2  0.2066940000000 -0.2066940000000  0.0000000000000 1.0  -0.56
O      2 -0.2066940000000  0.2066940000000  0.0000000000000 1.0  -0.56
S      3  0.3741340000000  0.3811470000000  0.3203410000000 1.0  -0.24
S      3  0.0608070000000  0.0537940000000 -0.3203410000000 1.0  -0.24
S      3 -0.0537940000000 -0.0608070000000  0.3203410000000 1.0  -0.24
S      3 -0.3811470000000 -0.3741340000000 -0.3203410000000 1.0  -0.24
Fe     4 -0.0785830000000 -0.0785830000000 -0.1571650000000 1.0  -3.70
Fe     4  0.0785830000000  0.0785830000000  0.1571650000000 1.0  -3.70
Fe     4  0.2500000000000 -0.2500000000000  0.5000000000000 1.0  -2.60
END
