TITL LFSO-Li2Fe4S3O2-200912-045832-851e94 -0.0501 158.779936 -5.63370460E+003 -0.419171E-03 0.308282E-01 11 (Cmm2) n - 1
REM
REM Run started: Sat, 12 Sep 2020 10:09:06 +0100 in /lustre/scratch/uccabz1/launch_tmp/launcher_2020-09-12-03-58-31-035818
REM CASTEP 20.1 from code version af48c487+ pr-geom-scf-spinfix Tue Jun 2 15:39:59 2020 +0100
REM Functional Perdew Burke Ernzerhof Relativity Koelling-Harmon Dispersion off
REM Cut-off 340.0000 eV Grid scale 1.7500 Gmax 16.5316 1/A FBSC none
REM MP grid 6 3 2 Offset 0.000 0.000 0.000 No. kpts 9 Spacing 0.07
REM Total runtime: 18734.2 s
REM Overall efficiency: 96.1 %
REM
REM
REM
REM compiler GCC version 4.9.2
REM options -cpp -iprefix /lustre/shared/ucl/apps/gcc/4.9.2/bin/../lib/gcc/x86_64-unknown-linux-gnu/4.9.2/ -mtune=corei7 -march=x86-64 -g -Og
REM COMMAND_LINE
REM seed -1701400650 1444214726 -1284761731 -879268186 122571346 -929756590 -1057275184 1683721659 754359860 1478081363 9411500 218495000
REM
REM S 3|1.8|5|6|7|30:31:32(qc=5)
REM O 2|1.5|12|13|15|20:21(qc=5)
REM Li 1|1.3|8|9|10|10U:20(qc=5)
REM Fe 3|2.2|2.0|1.0|8|9|10|40:41:32(qc=5)
REM 
CELL 1.54180    2.73223    5.17264   11.65447   90.00000   90.00000   74.57791
LATT -1
SFAC Li O  S  Fe 
Li     1 -0.3707100000000 -0.2503440000000 -0.0056660000000 1.0   0.00
Li     1  0.3707100000000  0.2503440000000 -0.0056660000000 1.0   0.00
O      2 -0.0724460000000  0.1404820000000  0.0905000000000 1.0   0.00
O      2  0.0724460000000 -0.1404820000000  0.0905000000000 1.0   0.00
S      3  0.1096880000000 -0.2188650000000 -0.3615830000000 1.0   0.00
S      3 -0.1096880000000  0.2188650000000 -0.3615830000000 1.0   0.00
S      3  0.0000000000000  0.0000000000000  0.3845110000000 1.0  -0.00
Fe     4  0.3648810000000  0.2702260000000  0.4866610000000 1.0   0.00
Fe     4 -0.3648810000000 -0.2702260000000  0.4866610000000 1.0   0.00
Fe     4  0.3486780000000  0.3022590000000 -0.2246630000000 1.0  -0.01
Fe     4 -0.3486780000000 -0.3022590000000 -0.2246630000000 1.0  -0.01
END
