TITL LFSO-Li3FeS2O-200911-175651-e7a958 -0.1306 228.786876 -2.50677863E+003 4.99008 5.04262 7 (P3) n - 1
REM
REM Run started: Fri, 11 Sep 2020 20:48:22 +0100 in /lustre/scratch/uccabz1/launch_tmp/launcher_2020-09-11-16-56-49-352587
REM CASTEP 20.1 from code version af48c487+ pr-geom-scf-spinfix Tue Jun 2 15:39:59 2020 +0100
REM Functional Perdew Burke Ernzerhof Relativity Koelling-Harmon Dispersion off
REM Cut-off 340.0000 eV Grid scale 1.7500 Gmax 16.5316 1/A FBSC none
REM MP grid 3 3 3 Offset 0.000 0.000 0.000 No. kpts 8 Spacing 0.07
REM Total runtime: 11146.1 s
REM Overall efficiency: 95.6667 %
REM
REM
REM
REM compiler GCC version 4.9.2
REM options -cpp -iprefix /lustre/shared/ucl/apps/gcc/4.9.2/bin/../lib/gcc/x86_64-unknown-linux-gnu/4.9.2/ -mtune=corei7 -march=x86-64 -g -Og
REM COMMAND_LINE
REM seed 794047215 -1947939786 -2037278869 1885681657 1698371179 -790301233 793803170 896526114 339137328 -1820759628 15375325 92658507
REM
REM S 3|1.8|5|6|7|30:31:32(qc=5)
REM O 2|1.5|12|13|15|20:21(qc=5)
REM Li 1|1.3|8|9|10|10U:20(qc=5)
REM Fe 3|2.2|2.0|1.0|8|9|10|40:41:32(qc=5)
REM 
CELL 1.54180    6.20463    6.20463    6.86228   90.00000   90.00000  120.00000
LATT -1
SFAC Li O  S  Fe 
Li     1  0.0392620000000  0.5051530000000 -0.0422490000000 1.0   0.01
Li     1 -0.5051530000000 -0.4658900000000 -0.0422490000000 1.0   0.01
Li     1  0.4658900000000 -0.0392620000000 -0.0422490000000 1.0   0.01
O      2  0.3333330000000 -0.3333330000000  0.0944840000000 1.0   0.31
S      3  0.3333330000000 -0.3333330000000 -0.3378850000000 1.0   0.33
S      3 -0.3333330000000  0.3333330000000  0.1246290000000 1.0   0.44
Fe     4  0.3333330000000 -0.3333330000000  0.3506920000000 1.0   3.89
END
