TITL LFSO-Li3FeS2O-200911-171021-cc5c35 0.3346 453.902459 -7.51939450E+003 8.91572 10.4505 21 (P2/m) n - 1
REM
REM Run started: Mon, 14 Sep 2020 14:08:17 +0100 in /lustre/scratch/uccabz1/launch_tmp/launcher_2020-09-14-10-56-17-920343
REM CASTEP 20.1 from code version af48c487+ pr-geom-scf-spinfix Tue Jun 2 15:39:59 2020 +0100
REM Functional Perdew Burke Ernzerhof Relativity Koelling-Harmon Dispersion off
REM Cut-off 340.0000 eV Grid scale 1.7500 Gmax 16.5316 1/A FBSC none
REM MP grid 2 4 4 Offset 0.000 0.000 0.000 No. kpts 8 Spacing 0.07
REM Total runtime: 201262 s
REM Overall efficiency: 75.4615 %
REM
REM
REM
REM compiler GCC version 4.9.2
REM options -cpp -iprefix /lustre/shared/ucl/apps/gcc/4.9.2/bin/../lib/gcc/x86_64-unknown-linux-gnu/4.9.2/ -mtune=corei7 -march=x86-64 -g -Og
REM COMMAND_LINE
REM seed -1434140915 -1193422908 -1631438574 -1438684783 673006060 1588205212 1569132738 -472371693 -456856492 -617381015 673057549 -669410237
REM
REM S 3|1.8|5|6|7|30:31:32(qc=5)
REM O 2|1.5|12|13|15|20:21(qc=5)
REM Li 1|1.3|8|9|10|10U:20(qc=5)
REM Fe 3|2.2|2.0|1.0|8|9|10|40:41:32(qc=5)
REM 
CELL 1.54180    7.68199   12.89537   15.34414  162.62552   90.00000   90.00000
LATT -1
SFAC Li O  S  Fe 
Li     1  0.3475200000000 -0.1138750000000 -0.4164990000000 1.0   0.01
Li     1  0.3475200000000  0.1138750000000  0.4164990000000 1.0   0.01
Li     1 -0.3475200000000  0.1138750000000  0.4164990000000 1.0   0.01
Li     1 -0.3475200000000 -0.1138750000000 -0.4164990000000 1.0   0.01
Li     1  0.3338890000000  0.1769650000000 -0.0320460000000 1.0  -0.02
Li     1  0.3338890000000 -0.1769650000000  0.0320460000000 1.0  -0.02
Li     1 -0.3338890000000 -0.1769650000000  0.0320460000000 1.0  -0.02
Li     1 -0.3338890000000  0.1769650000000 -0.0320460000000 1.0  -0.02
Li     1  0.0000000000000  0.0000000000000 -0.5000000000000 1.0  -0.58
O      2 -0.5000000000000  0.0663720000000 -0.1949840000000 1.0   0.11
O      2 -0.5000000000000 -0.0663720000000  0.1949840000000 1.0   0.11
O      2  0.5000000000000  0.5000000000000  0.5000000000000 1.0   0.43
S      3  0.1985080000000 -0.4169760000000 -0.2945610000000 1.0   0.07
S      3  0.1985080000000  0.4169760000000  0.2945610000000 1.0   0.07
S      3 -0.1985080000000  0.4169760000000  0.2945610000000 1.0   0.07
S      3 -0.1985080000000 -0.4169760000000 -0.2945610000000 1.0   0.07
S      3 -0.5000000000000  0.2530350000000 -0.3280610000000 1.0   0.12
S      3  0.5000000000000 -0.2530350000000  0.3280610000000 1.0   0.12
Fe     4  0.2704150000000 -0.5000000000000 -0.5000000000000 1.0   2.99
Fe     4 -0.2704150000000 -0.5000000000000 -0.5000000000000 1.0   2.99
Fe     4  0.0000000000000  0.0000000000000  0.0000000000000 1.0   2.44
END
