TITL LFSO-Li4Fe3S2O3-200928-143327-8f0974 0.0410 174.104818 -5.31305464E+003 11.9995 12.0996 12 (R3m) n - 1
REM
REM Run started: Mon, 28 Sep 2020 17:56:38 +0100 in /lustre/scratch/uccabz1/launch_tmp/launcher_2020-09-28-13-33-25-736190
REM CASTEP 20.1 from code version af48c487+ pr-geom-scf-spinfix Tue Jun 2 15:39:59 2020 +0100
REM Functional Perdew Burke Ernzerhof Relativity Koelling-Harmon Dispersion off
REM Cut-off 340.0000 eV Grid scale 1.7500 Gmax 16.5316 1/A FBSC none
REM MP grid 3 3 3 Offset 0.000 0.000 0.000 No. kpts 6 Spacing 0.07
REM Total runtime: 11249.9 s
REM Overall efficiency: 95.8182 %
REM
REM
REM
REM compiler GCC version 4.9.2
REM options -cpp -iprefix /lustre/shared/ucl/apps/gcc/4.9.2/bin/../lib/gcc/x86_64-unknown-linux-gnu/4.9.2/ -mtune=corei7 -march=x86-64 -g -Og
REM COMMAND_LINE
REM seed -702921316 -2139476119 -411158122 -1380030233 -59644511 839066373 -1260522738 679188600 -1589272305 496876248 -1820329011 -823593279
REM
REM S 3|1.8|5|6|7|30:31:32(qc=5)
REM O 2|1.5|12|13|15|20:21(qc=5)
REM Li 1|1.3|8|9|10|10U:20(qc=5)
REM Fe 3|2.2|2.0|1.0|8|9|10|40:41:32(qc=5)
REM 
CELL 1.54180    6.33445    6.33445    6.20307   59.29683   59.29683   60.00000
LATT -1
SFAC Li O  S  Fe 
Li     1 -0.2826850000000 -0.2793230000000  0.2568350000000 1.0   0.01
Li     1  0.3051740000000 -0.2826850000000  0.2568350000000 1.0   0.01
Li     1 -0.2793230000000  0.3051740000000  0.2568350000000 1.0   0.01
Li     1 -0.5495260000000 -0.5495260000000  0.6485770000000 1.0  -0.05
O      2  0.3555690000000 -0.6480210000000 -0.5308050000000 1.0   0.30
O      2 -0.1767430000000  0.3555690000000 -0.5308050000000 1.0   0.30
O      2 -0.6480210000000 -0.1767430000000 -0.5308050000000 1.0   0.30
S      3 -0.0121230000000 -0.0121230000000  0.0363690000000 1.0   0.33
S      3 -0.2800180000000 -0.2800180000000 -0.1599470000000 1.0   0.18
Fe     4 -0.0175360000000 -0.0145880000000 -0.3451490000000 1.0   3.54
Fe     4  0.3772730000000 -0.0175360000000 -0.3451490000000 1.0   3.54
Fe     4 -0.0145880000000  0.3772730000000 -0.3451490000000 1.0   3.54
END
