TITL LFSO-LiFe3SO4-200909-015952-fde069 0.0127 228.436755 -9.68793127E+003 16.2781 16.6101 18 (Cc) n - 1
REM
REM Run started: Wed, 09 Sep 2020 18:18:33 +0100 in /lustre/scratch/uccabz1/launch_tmp/launcher_2020-09-09-00-59-51-239186
REM CASTEP 20.1 from code version af48c487+ pr-geom-scf-spinfix Tue Jun 2 15:39:59 2020 +0100
REM Functional Perdew Burke Ernzerhof Relativity Koelling-Harmon Dispersion off
REM Cut-off 340.0000 eV Grid scale 1.7500 Gmax 16.5316 1/A FBSC none
REM MP grid 7 2 2 Offset 0.000 0.000 0.000 No. kpts 11 Spacing 0.07
REM Total runtime: 59111 s
REM Overall efficiency: 87.5385 %
REM
REM
REM
REM compiler GCC version 4.9.2
REM options -cpp -iprefix /lustre/shared/ucl/apps/gcc/4.9.2/bin/../lib/gcc/x86_64-unknown-linux-gnu/4.9.2/ -mtune=corei7 -march=x86-64 -g -Og
REM COMMAND_LINE
REM seed -1150215720 2017776851 -611576230 449614546 -836786835 157199941 -1910322806 2063779259 106596944 1643827100 -1579824765 -1506361684
REM
REM S 3|1.8|5|6|7|30:31:32(qc=5)
REM O 2|1.5|12|13|15|20:21(qc=5)
REM Li 1|1.3|8|9|10|10U:20(qc=5)
REM Fe 3|2.2|2.0|1.0|8|9|10|40:41:32(qc=5)
REM 
CELL 1.54180    2.72070   10.45875   10.45875   82.81869   61.62705   61.62705
LATT -1
SFAC Li O  S  Fe 
Li     1  0.2520870000000 -0.4147460000000  0.1861470000000 1.0  -0.00
Li     1 -0.2479130000000  0.1861470000000 -0.4147460000000 1.0  -0.00
O      2 -0.1576440000000  0.2120040000000 -0.0627700000000 1.0   0.11
O      2  0.3423560000000 -0.0627700000000  0.2120040000000 1.0   0.11
O      2 -0.1757730000000 -0.1491100000000 -0.3912020000000 1.0   0.09
O      2  0.3242270000000 -0.3912020000000 -0.1491100000000 1.0   0.09
O      2  0.1528000000000  0.4416990000000  0.1102900000000 1.0   0.21
O      2 -0.3472000000000  0.1102900000000  0.4416990000000 1.0   0.21
O      2 -0.4574540000000 -0.3169000000000  0.3831380000000 1.0   0.10
O      2  0.0425460000000  0.3831380000000 -0.3169000000000 1.0   0.10
S      3  0.3228380000000  0.0651830000000 -0.1900890000000 1.0   0.03
S      3 -0.1771620000000 -0.1900890000000  0.0651830000000 1.0   0.03
Fe     4 -0.2977330000000 -0.2750460000000 -0.4736450000000 1.0   2.31
Fe     4 -0.7977330000000 -0.4736450000000 -0.2750460000000 1.0   2.31
Fe     4  0.0838670000000 -0.0990680000000  0.4115050000000 1.0   2.00
Fe     4 -0.4161330000000  0.4115050000000 -0.0990680000000 1.0   2.00
Fe     4  0.4187570000000  0.1238340000000  0.2808110000000 1.0   3.29
Fe     4  0.9187570000000  0.2808110000000  0.1238340000000 1.0   3.29
END
