TITL LFSO-Li3Fe3S5O-200928-171051-6a1f4e -0.0326 482.088003 -1.02920077E+004 -16.1150 18.5702 24 (P3) n - 1
REM
REM Run started: Tue, 29 Sep 2020 12:46:50 +0100 in /lustre/scratch/uccabz1/launch_tmp/launcher_2020-09-29-07-16-23-216241
REM CASTEP 20.1 from code version af48c487+ pr-geom-scf-spinfix Tue Jun 2 15:39:59 2020 +0100
REM Functional Perdew Burke Ernzerhof Relativity Koelling-Harmon Dispersion off
REM Cut-off 340.0000 eV Grid scale 1.7500 Gmax 16.5316 1/A FBSC none
REM MP grid 3 3 2 Offset 0.000 0.000 0.000 No. kpts 5 Spacing 0.07
REM Total runtime: 63292.2 s
REM Overall efficiency: 73.25 %
REM
REM
REM
REM compiler GCC version 4.9.2
REM options -cpp -iprefix /lustre/shared/ucl/apps/gcc/4.9.2/bin/../lib/gcc/x86_64-unknown-linux-gnu/4.9.2/ -mtune=corei7 -march=x86-64 -g -Og
REM COMMAND_LINE
REM seed -1838057055 -884476328 -1319729624 -301904452 -672207596 69692498 796864558 -1214451804 1917289240 769391025 66258397 1231098409
REM
REM S 3|1.8|5|6|7|30:31:32(qc=5)
REM O 2|1.5|12|13|15|20:21(qc=5)
REM Li 1|1.3|8|9|10|10U:20(qc=5)
REM Fe 3|2.2|2.0|1.0|8|9|10|40:41:32(qc=5)
REM 
CELL 1.54180    7.59244    7.59244    9.65679   90.00000   90.00000  120.00000
LATT -1
SFAC Li O  S  Fe 
Li     1 -0.3891750000000 -0.0944250000000  0.4531030000000 1.0  -0.03
Li     1  0.2947490000000  0.3891750000000  0.4531030000000 1.0  -0.03
Li     1  0.0944250000000 -0.2947490000000  0.4531030000000 1.0  -0.03
Li     1  0.0258360000000 -0.5726860000000 -0.1945580000000 1.0  -0.04
Li     1  0.4014770000000 -0.0258360000000 -0.1945580000000 1.0  -0.04
Li     1  0.5726860000000 -0.4014770000000 -0.1945580000000 1.0  -0.04
O      2  0.3333330000000 -0.3333330000000  0.3213720000000 1.0  -0.12
O      2  0.3333330000000 -0.3333330000000  0.0753970000000 1.0  -0.15
S      3 -0.2735750000000 -0.3641990000000  0.0394110000000 1.0  -0.10
S      3 -0.0906250000000  0.2735750000000  0.0394110000000 1.0  -0.10
S      3  0.3641990000000  0.0906250000000  0.0394110000000 1.0  -0.10
S      3 -0.3228660000000  0.6244420000000  0.3799580000000 1.0  -0.34
S      3 -0.0526930000000  0.3228660000000  0.3799580000000 1.0  -0.34
S      3 -0.6244420000000  0.0526930000000  0.3799580000000 1.0  -0.34
S      3  0.2521870000000  0.3023660000000 -0.2305690000000 1.0   0.05
S      3  0.0501780000000 -0.2521870000000 -0.2305690000000 1.0   0.05
S      3 -0.3023660000000 -0.0501780000000 -0.2305690000000 1.0   0.05
S      3  0.3333330000000 -0.3333330000000 -0.3612660000000 1.0   0.63
Fe     4  0.1555650000000  0.2037250000000 -0.0235020000000 1.0  -2.53
Fe     4  0.0481580000000 -0.1555650000000 -0.0235020000000 1.0  -2.53
Fe     4 -0.2037250000000 -0.0481580000000 -0.0235020000000 1.0  -2.53
Fe     4  0.1250140000000  0.4755180000000  0.2031890000000 1.0  -2.49
Fe     4  0.3505040000000 -0.1250140000000  0.2031890000000 1.0  -2.49
Fe     4 -0.4755180000000 -0.3505040000000  0.2031890000000 1.0  -2.49
END
