TITL LFSO-Li4Fe2S3O2-200911-042425-aba530 0.0066 206.011411 -4.31379044E+003 5.99568 6.43066 11 (Pmm2) n - 1
REM
REM Run started: Fri, 11 Sep 2020 05:02:27 +0100 in /lustre/scratch/uccabz1/launch_tmp/launcher_2020-09-11-03-24-22-677911
REM CASTEP 20.1 from code version af48c487+ pr-geom-scf-spinfix Tue Jun 2 15:39:59 2020 +0100
REM Functional Perdew Burke Ernzerhof Relativity Koelling-Harmon Dispersion off
REM Cut-off 340.0000 eV Grid scale 1.7500 Gmax 16.5316 1/A FBSC none
REM MP grid 4 3 2 Offset 0.000 0.000 0.000 No. kpts 4 Spacing 0.07
REM Total runtime: 2432.05 s
REM Overall efficiency: 93.6667 %
REM
REM
REM
REM compiler GCC version 4.9.2
REM options -cpp -iprefix /lustre/shared/ucl/apps/gcc/4.9.2/bin/../lib/gcc/x86_64-unknown-linux-gnu/4.9.2/ -mtune=corei7 -march=x86-64 -g -Og
REM COMMAND_LINE
REM seed -1226772199 -241915712 -1850371834 512673536 1874642247 -136873466 921984062 765165343 2098835763 1854141597 -693629306 -215131730
REM
REM S 3|1.8|5|6|7|30:31:32(qc=5)
REM O 2|1.5|12|13|15|20:21(qc=5)
REM Li 1|1.3|8|9|10|10U:20(qc=5)
REM Fe 3|2.2|2.0|1.0|8|9|10|40:41:32(qc=5)
REM 
CELL 1.54180    4.15513    5.46565    9.07120   90.00000   90.00000   90.00000
LATT -1
SFAC Li O  S  Fe 
Li     1  0.2664790000000  0.2601340000000  0.2145740000000 1.0  -0.01
Li     1  0.2664790000000 -0.2601340000000 -0.2145740000000 1.0  -0.01
Li     1  0.2664790000000  0.2601340000000 -0.2145740000000 1.0  -0.01
Li     1  0.2664790000000 -0.2601340000000  0.2145740000000 1.0  -0.01
O      2 -0.6204210000000  0.0000000000000  0.3508110000000 1.0   0.20
O      2 -0.6204210000000  0.0000000000000 -0.3508110000000 1.0   0.20
S      3 -0.3102060000000  0.5000000000000  0.3358250000000 1.0  -0.02
S      3 -0.3102060000000 -0.5000000000000 -0.3358250000000 1.0  -0.02
S      3  0.1582520000000  0.5000000000000  0.0000000000000 1.0   0.42
Fe     4 -0.4782810000000  0.2179250000000  0.5000000000000 1.0   2.63
Fe     4 -0.4782810000000 -0.2179250000000 -0.5000000000000 1.0   2.63
END
