TITL LFSO-Li2Fe3SO3-200912-173424-84cc9b -0.0089 202.087810 -9.21460612E+003 -0.762577E-01 0.161930 18 (P2) n - 1
REM
REM Run started: Sun, 13 Sep 2020 20:47:15 +0100 in /lustre/scratch/uccabz1/launch_tmp/launcher_2020-09-12-16-34-22-814176
REM CASTEP 20.1 from code version af48c487+ pr-geom-scf-spinfix Tue Jun 2 15:39:59 2020 +0100
REM Functional Perdew Burke Ernzerhof Relativity Koelling-Harmon Dispersion off
REM Cut-off 340.0000 eV Grid scale 1.7500 Gmax 16.5316 1/A FBSC none
REM MP grid 3 4 3 Offset 0.000 0.000 0.000 No. kpts 12 Spacing 0.07
REM Total runtime: 105525 s
REM Overall efficiency: 82.8333 %
REM
REM
REM
REM compiler GCC version 4.9.2
REM options -cpp -iprefix /lustre/shared/ucl/apps/gcc/4.9.2/bin/../lib/gcc/x86_64-unknown-linux-gnu/4.9.2/ -mtune=corei7 -march=x86-64 -g -Og
REM COMMAND_LINE
REM seed -336216194 -940015005 968051482 280556105 -2124006258 -818986038 -179305691 1748857737 511811023 1341200489 1795258597 -867624253
REM
REM S 3|1.8|5|6|7|30:31:32(qc=5)
REM O 2|1.5|12|13|15|20:21(qc=5)
REM Li 1|1.3|8|9|10|10U:20(qc=5)
REM Fe 3|2.2|2.0|1.0|8|9|10|40:41:32(qc=5)
REM 
CELL 1.54180    7.46237    6.00269    5.97225   90.00000   90.00000  130.93922
LATT -1
SFAC Li O  S  Fe 
Li     1  0.1426590000000  0.2635540000000 -0.0644730000000 1.0  -0.00
Li     1 -0.1426590000000 -0.2635540000000 -0.0644730000000 1.0  -0.00
Li     1  0.2912530000000 -0.1065730000000  0.1234340000000 1.0   0.00
Li     1 -0.2912530000000  0.1065730000000  0.1234340000000 1.0   0.00
O      2 -0.6554050000000 -0.3645180000000  0.0829610000000 1.0  -0.00
O      2  0.6554050000000  0.3645180000000  0.0829610000000 1.0  -0.00
O      2  0.2099310000000  0.0054490000000 -0.1214730000000 1.0   0.00
O      2 -0.2099310000000 -0.0054490000000 -0.1214730000000 1.0   0.00
O      2 -0.1824610000000  0.5038720000000 -0.3666460000000 1.0  -0.00
O      2  0.1824610000000 -0.5038720000000 -0.3666460000000 1.0  -0.00
S      3  0.2499840000000  0.1278130000000  0.3930030000000 1.0  -0.00
S      3 -0.2499840000000 -0.1278130000000  0.3930030000000 1.0  -0.00
Fe     4 -0.3684310000000  0.4255890000000  0.3864470000000 1.0  -0.01
Fe     4  0.3684310000000 -0.4255890000000  0.3864470000000 1.0  -0.01
Fe     4  0.1836230000000 -0.1916190000000  0.6227900000000 1.0  -0.03
Fe     4 -0.1836230000000  0.1916190000000  0.6227900000000 1.0  -0.03
Fe     4  0.5303360000000  0.2343280000000 -0.2117000000000 1.0   0.04
Fe     4 -0.5303360000000 -0.2343280000000 -0.2117000000000 1.0   0.04
END
