TITL LFSO-Li6FeS3O-200910-015546-6de01a -0.0201 353.382733 -6.82825122E+003 8.00000 8.15412 22 (P-1) n - 1
REM
REM Run started: Thu, 10 Sep 2020 12:21:06 +0100 in /lustre/scratch/uccabz1/launch_tmp/launcher_2020-09-10-07-47-40-712127
REM CASTEP 20.1 from code version af48c487+ pr-geom-scf-spinfix Tue Jun 2 15:39:59 2020 +0100
REM Functional Perdew Burke Ernzerhof Relativity Koelling-Harmon Dispersion off
REM Cut-off 340.0000 eV Grid scale 1.7500 Gmax 16.5316 1/A FBSC none
REM MP grid 5 3 2 Offset 0.000 0.000 0.000 No. kpts 15 Spacing 0.07
REM Total runtime: 40833.6 s
REM Overall efficiency: 98.0909 %
REM
REM
REM
REM compiler GCC version 4.9.2
REM options -cpp -iprefix /lustre/shared/ucl/apps/gcc/4.9.2/bin/../lib/gcc/x86_64-unknown-linux-gnu/4.9.2/ -mtune=corei7 -march=x86-64 -g -Og
REM COMMAND_LINE
REM seed -1438103520 -1716077019 -742103630 -1024947994 -1420091851 2091829662 -1530162177 -930011571 -681301958 935245193 -1011800475 614524853
REM
REM S 3|1.8|5|6|7|30:31:32(qc=5)
REM O 2|1.5|12|13|15|20:21(qc=5)
REM Li 1|1.3|8|9|10|10U:20(qc=5)
REM Fe 3|2.2|2.0|1.0|8|9|10|40:41:32(qc=5)
REM 
CELL 1.54180    3.98494    7.93920   14.40690   66.94311   72.03669   58.19929
LATT -1
SFAC Li O  S  Fe 
Li     1 -0.1076750000000 -0.0880470000000  0.2020010000000 1.0  -0.02
Li     1  0.1076750000000  0.0880470000000 -0.2020010000000 1.0  -0.02
Li     1 -0.2348260000000  0.0751720000000 -0.3380330000000 1.0   0.02
Li     1  0.2348260000000 -0.0751720000000  0.3380330000000 1.0   0.02
Li     1 -0.2415420000000 -0.2504850000000  0.4887110000000 1.0  -0.03
Li     1  0.2415420000000  0.2504850000000 -0.4887110000000 1.0  -0.03
Li     1 -0.0636990000000 -0.6231430000000  0.2046320000000 1.0  -0.05
Li     1  0.0636990000000  0.6231430000000 -0.2046320000000 1.0  -0.05
Li     1 -0.3611530000000  0.2963710000000  0.0628450000000 1.0   0.02
Li     1  0.3611530000000 -0.2963710000000 -0.0628450000000 1.0   0.02
Li     1 -0.6456970000000  0.2012430000000 -0.0656130000000 1.0   0.01
Li     1  0.6456970000000 -0.2012430000000  0.0656130000000 1.0   0.01
O      2  0.1502910000000  0.2004040000000 -0.3477240000000 1.0   0.23
O      2 -0.1502910000000 -0.2004040000000  0.3477240000000 1.0   0.23
S      3 -0.2802090000000  0.4093770000000 -0.1380580000000 1.0   0.07
S      3  0.2802090000000 -0.4093770000000  0.1380580000000 1.0   0.07
S      3  0.7233810000000 -0.1001320000000 -0.1260380000000 1.0   0.01
S      3 -0.7233810000000  0.1001320000000  0.1260380000000 1.0   0.01
S      3 -0.2083930000000  0.3175080000000  0.3896940000000 1.0   0.17
S      3  0.2083930000000 -0.3175080000000 -0.3896940000000 1.0   0.17
Fe     4  0.1670150000000  0.5359880000000  0.3268250000000 1.0   3.57
Fe     4 -0.1670150000000 -0.5359880000000 -0.3268250000000 1.0   3.57
END
