TITL LFSO-Li4Fe3S2O3-201001-210339-863d51 0.0422 327.779654 -1.06232650E+004 19.9732 20.4070 24 (P1) n - 1
REM
REM Run started: Fri, 02 Oct 2020 01:14:33 +0100 in /scratch/scratch/mmm0366/launch_tmp/launcher_2020-10-01-20-03-37-591469
REM CASTEP 19.11| from code version Version unavailable
REM Functional Perdew Burke Ernzerhof Relativity Koelling-Harmon Dispersion off
REM Cut-off 340.0000 eV Grid scale 1.7500 Gmax 16.5316 1/A FBSC none
REM MP grid 4 3 1 Offset 0.000 0.000 0.000 No. kpts 6 Spacing 0.07
REM Total runtime: 15827.4 s
REM Overall efficiency: 80.875 %
REM
REM
REM
REM compiler GCC version 4.9.2
REM options -cpp -iprefix /scratch/UCL/applications/gcc/4.9.2/bin/../lib/gcc/x86_64-unknown-linux-gnu/4.9.2/ -mtune=corei7 -march=x86-64 -g -O2
REM COMMAND_LINE
REM seed 318577871 -319123160 -1782124235 1254936965 -483357667 1426989101 2063547784 1917184282 -1015205896 782263509 -833776760 264803605
REM
REM S 3|1.8|5|6|7|30:31:32(qc=5)
REM O 2|1.5|12|13|15|20:21(qc=5)
REM Li 1|1.3|8|9|10|10U:20(qc=5)
REM Fe 3|2.2|2.0|1.0|8|9|10|40:41:32(qc=5)
REM 
CELL 1.54180    3.74725    5.75123   15.36382   90.00000   90.00000   81.86585
LATT -1
SFAC Li O  S  Fe 
Li     1 -0.1759840000000 -0.2971420000000 -0.5351120000000 1.0  -0.06
Li     1  0.1759840000000  0.2971420000000 -0.0351120000000 1.0  -0.06
Li     1  0.1759840000000  0.2971420000000  0.5351120000000 1.0  -0.06
Li     1 -0.1759840000000 -0.2971420000000  0.0351120000000 1.0  -0.06
Li     1 -0.3264240000000  0.3241500000000  0.4059090000000 1.0   0.03
Li     1  0.3264240000000 -0.3241500000000 -0.0940910000000 1.0   0.03
Li     1  0.3264240000000 -0.3241500000000 -0.4059090000000 1.0   0.03
Li     1 -0.3264240000000  0.3241500000000  0.0940910000000 1.0   0.03
O      2  0.1625850000000  0.4127940000000 -0.1620050000000 1.0   0.21
O      2 -0.1625850000000 -0.4127940000000  0.3379950000000 1.0   0.21
O      2 -0.1625850000000 -0.4127940000000  0.1620050000000 1.0   0.21
O      2  0.1625850000000  0.4127940000000 -0.3379950000000 1.0   0.21
O      2 -0.5000000000000  0.5000000000000  0.0000000000000 1.0   0.08
O      2  0.5000000000000  0.5000000000000 -0.5000000000000 1.0   0.08
S      3  0.2154120000000  0.0897950000000  0.1402960000000 1.0   0.14
S      3 -0.2154120000000 -0.0897950000000 -0.3597040000000 1.0   0.14
S      3 -0.2154120000000 -0.0897950000000 -0.1402960000000 1.0   0.14
S      3  0.2154120000000  0.0897950000000  0.3597040000000 1.0   0.14
Fe     4  0.3173550000000 -0.3035060000000  0.1722580000000 1.0   3.39
Fe     4 -0.3173550000000  0.3035060000000 -0.3277420000000 1.0   3.39
Fe     4 -0.3173550000000  0.3035060000000 -0.1722580000000 1.0   3.39
Fe     4  0.3173550000000 -0.3035060000000  0.3277420000000 1.0   3.39
Fe     4  0.0272360000000  0.3611720000000  0.2500000000000 1.0   2.48
Fe     4 -0.0272360000000 -0.3611720000000 -0.2500000000000 1.0   2.48
END
