TITL LFSO-Li4FeS2O-200910-112653-0895d3 0.0112 442.255596 -8.12647923E+003 10.0000 10.5662 24 (P-1) n - 1
REM
REM Run started: Fri, 11 Sep 2020 16:56:17 +0100 in /lustre/scratch/uccabz1/launch_tmp/launcher_2020-09-10-10-26-51-718034
REM CASTEP 20.1 from code version af48c487+ pr-geom-scf-spinfix Tue Jun 2 15:39:59 2020 +0100
REM Functional Perdew Burke Ernzerhof Relativity Koelling-Harmon Dispersion off
REM Cut-off 340.0000 eV Grid scale 1.7500 Gmax 16.5316 1/A FBSC none
REM MP grid 3 3 2 Offset 0.000 0.000 0.000 No. kpts 9 Spacing 0.07
REM Total runtime: 117734 s
REM Overall efficiency: 98.8333 %
REM
REM
REM
REM compiler GCC version 4.9.2
REM options -cpp -iprefix /lustre/shared/ucl/apps/gcc/4.9.2/bin/../lib/gcc/x86_64-unknown-linux-gnu/4.9.2/ -mtune=corei7 -march=x86-64 -g -Og
REM COMMAND_LINE
REM seed -948276150 -1950914347 -716222743 -1238862214 -1084151599 1190399763 568603394 -1045892815 1195231604 1128458040 1211197859 1952346016
REM
REM S 3|1.8|5|6|7|30:31:32(qc=5)
REM O 2|1.5|12|13|15|20:21(qc=5)
REM Li 1|1.3|8|9|10|10U:20(qc=5)
REM Fe 3|2.2|2.0|1.0|8|9|10|40:41:32(qc=5)
REM 
CELL 1.54180    9.30388    6.30876    9.86446  105.30620   84.62271   56.13346
LATT -1
SFAC Li O  S  Fe 
Li     1  0.1688080000000  0.4342170000000  0.0621360000000 1.0  -0.02
Li     1 -0.1688080000000 -0.4342170000000 -0.0621360000000 1.0  -0.02
Li     1  0.3741640000000  0.1371510000000 -0.2302640000000 1.0  -0.00
Li     1 -0.3741640000000 -0.1371510000000  0.2302640000000 1.0  -0.00
Li     1  0.1133250000000  0.2172310000000  0.3415150000000 1.0  -0.05
Li     1 -0.1133250000000 -0.2172310000000 -0.3415150000000 1.0  -0.05
Li     1 -0.3117890000000 -0.5126440000000  0.5597570000000 1.0  -0.03
Li     1  0.3117890000000  0.5126440000000 -0.5597570000000 1.0  -0.03
Li     1  0.3763630000000  0.6364680000000 -0.3083710000000 1.0   0.01
Li     1 -0.3763630000000 -0.6364680000000  0.3083710000000 1.0   0.01
Li     1 -0.4610690000000  0.2252680000000  0.0074690000000 1.0   0.00
Li     1  0.4610690000000 -0.2252680000000 -0.0074690000000 1.0   0.00
O      2  0.0475420000000 -0.2272510000000 -0.4724430000000 1.0   0.30
O      2 -0.0475420000000  0.2272510000000  0.4724430000000 1.0   0.30
O      2 -0.5000000000000  0.5000000000000 -0.5000000000000 1.0   0.02
S      3 -0.1113240000000 -0.1295350000000  0.1622970000000 1.0   0.04
S      3  0.1113240000000  0.1295350000000 -0.1622970000000 1.0   0.04
S      3 -0.3464580000000 -0.2039740000000 -0.2046550000000 1.0   0.04
S      3  0.3464580000000  0.2039740000000  0.2046550000000 1.0   0.04
S      3  0.2903550000000 -0.4175420000000 -0.0854260000000 1.0  -0.00
S      3 -0.2903550000000  0.4175420000000  0.0854260000000 1.0  -0.00
Fe     4 -0.0210120000000 -0.1095720000000  0.3688110000000 1.0   3.53
Fe     4  0.0210120000000  0.1095720000000 -0.3688110000000 1.0   3.53
Fe     4  0.0000000000000  0.0000000000000  0.0000000000000 1.0   2.39
END
