TITL LFSO-Li4Fe3SO4-200928-142914-f9a0b6 0.0540 384.812210 -1.08912649E+004 19.9244 20.4855 24 (I222) n - 1
REM
REM Run started: Wed, 30 Sep 2020 08:59:53 +0100 in /lustre/scratch/uccabz1/launch_tmp/launcher_2020-09-30-05-50-27-263572
REM CASTEP 20.1 from code version af48c487+ pr-geom-scf-spinfix Tue Jun 2 15:39:59 2020 +0100
REM Functional Perdew Burke Ernzerhof Relativity Koelling-Harmon Dispersion off
REM Cut-off 340.0000 eV Grid scale 1.7500 Gmax 16.5316 1/A FBSC none
REM MP grid 3 4 4 Offset 0.000 0.000 0.000 No. kpts 16 Spacing 0.07
REM Total runtime: 93794.8 s
REM Overall efficiency: 99 %
REM
REM
REM
REM compiler GCC version 4.9.2
REM options -cpp -iprefix /scratch/UCL/applications/gcc/4.9.2/bin/../lib/gcc/x86_64-unknown-linux-gnu/4.9.2/ -mtune=corei7 -march=x86-64 -g -O2
REM COMMAND_LINE
REM seed -697525349 1952800904 -1343707554 75872021 -1162913679 -1222040262 1832486317 55078780 -744326374 36989998 1969940094 1798290049
REM
REM S 3|1.8|5|6|7|30:31:32(qc=5)
REM O 2|1.5|12|13|15|20:21(qc=5)
REM Li 1|1.3|8|9|10|10U:20(qc=5)
REM Fe 3|2.2|2.0|1.0|8|9|10|40:41:32(qc=5)
REM 
CELL 1.54180   13.41831    9.03844    9.03844   74.27343   42.07307   42.07307
LATT -1
SFAC Li O  S  Fe 
Li     1  0.0557710000000  0.3864970000000 -0.0997820000000 1.0  -0.05
Li     1 -0.0557710000000  0.0997820000000 -0.3864970000000 1.0  -0.05
Li     1 -0.3424860000000 -0.0997820000000  0.3864970000000 1.0  -0.05
Li     1  0.3424860000000 -0.3864970000000  0.0997820000000 1.0  -0.05
Li     1 -0.0637650000000  0.2670300000000  0.2717310000000 1.0   0.03
Li     1  0.0637650000000 -0.2717310000000 -0.2670300000000 1.0   0.03
Li     1  0.5250050000000  0.2717310000000  0.2670300000000 1.0   0.03
Li     1 -0.5250050000000 -0.2670300000000 -0.2717310000000 1.0   0.03
O      2  0.3317510000000  0.3131940000000 -0.3959960000000 1.0   0.20
O      2 -0.3317510000000  0.3959960000000 -0.3131940000000 1.0   0.20
O      2 -0.2489490000000 -0.3959960000000  0.3131940000000 1.0   0.20
O      2  0.2489490000000 -0.3131940000000  0.3959960000000 1.0   0.20
O      2  0.0640670000000 -0.0603870000000  0.1941200000000 1.0   0.18
O      2 -0.0640670000000 -0.1941200000000  0.0603870000000 1.0   0.18
O      2 -0.1978010000000  0.1941200000000 -0.0603870000000 1.0   0.18
O      2  0.1978010000000  0.0603870000000 -0.1941200000000 1.0   0.18
S      3 -0.5000000000000  0.1491090000000 -0.1491090000000 1.0   0.27
S      3  0.5000000000000 -0.1491090000000  0.1491090000000 1.0   0.27
Fe     4 -0.5173410000000 -0.2043250000000  0.4163400000000 1.0   3.13
Fe     4  0.5173410000000 -0.4163400000000  0.2043250000000 1.0   3.13
Fe     4  0.3053260000000  0.4163400000000 -0.2043250000000 1.0   3.13
Fe     4 -0.3053260000000  0.2043250000000 -0.4163400000000 1.0   3.13
Fe     4  0.0000000000000  0.1082220000000 -0.1082220000000 1.0   2.71
Fe     4  0.0000000000000 -0.1082220000000  0.1082220000000 1.0   2.71
END
