TITL LFSO-Li3Fe3S4O2-200929-133136-4fec82 -0.0337 391.499517 -1.05637496E+004 -16.3181 17.0062 24 (P3) n - 1
REM
REM Run started: Wed, 30 Sep 2020 08:41:52 +0100 in /lustre/scratch/uccabz1/launch_tmp/launcher_2020-09-29-12-31-35-369287
REM CASTEP 20.1 from code version af48c487+ pr-geom-scf-spinfix Tue Jun 2 15:39:59 2020 +0100
REM Functional Perdew Burke Ernzerhof Relativity Koelling-Harmon Dispersion off
REM Cut-off 340.0000 eV Grid scale 1.7500 Gmax 16.5316 1/A FBSC none
REM MP grid 3 2 2 Offset 0.000 0.000 0.000 No. kpts 6 Spacing 0.07
REM Total runtime: 75148.8 s
REM Overall efficiency: 98.8182 %
REM
REM
REM
REM compiler GCC version 4.9.2
REM options -cpp -iprefix /lustre/shared/ucl/apps/gcc/4.9.2/bin/../lib/gcc/x86_64-unknown-linux-gnu/4.9.2/ -mtune=corei7 -march=x86-64 -g -Og
REM COMMAND_LINE
REM seed 141047938 1835165633 616726101 -13034210 1199226441 416177565 1344688285 254721998 509198066 1121516313 371922119 507870309
REM
REM S 3|1.8|5|6|7|30:31:32(qc=5)
REM O 2|1.5|12|13|15|20:21(qc=5)
REM Li 1|1.3|8|9|10|10U:20(qc=5)
REM Fe 3|2.2|2.0|1.0|8|9|10|40:41:32(qc=5)
REM 
CELL 1.54180    6.01540    8.66898    8.66898  120.00000   90.00000   90.00000
LATT -1
SFAC Li O  S  Fe 
Li     1  0.2975300000000 -0.2328490000000 -0.0756230000000 1.0   0.00
Li     1  0.2975300000000  0.1572250000000  0.2328490000000 1.0   0.00
Li     1  0.2975300000000  0.0756230000000 -0.1572250000000 1.0   0.00
Li     1  0.0144680000000 -0.4978080000000 -0.3738640000000 1.0   0.01
Li     1  0.0144680000000  0.1239440000000  0.4978080000000 1.0   0.01
Li     1  0.0144680000000  0.3738640000000 -0.1239440000000 1.0   0.01
O      2  0.0353950000000  0.1294730000000 -0.2848100000000 1.0  -0.32
O      2  0.0353950000000  0.5857180000000 -0.1294730000000 1.0  -0.32
O      2  0.0353950000000  0.2848100000000 -0.5857180000000 1.0  -0.32
O      2 -0.5216470000000 -0.0000000000000  0.0000000000000 1.0  -0.01
S      3  0.1809550000000  0.3548720000000  0.1107320000000 1.0  -0.11
S      3  0.1809550000000 -0.2441400000000 -0.3548720000000 1.0  -0.11
S      3  0.1809550000000 -0.1107320000000  0.2441400000000 1.0  -0.11
S      3  0.5616710000000  0.0017470000000  0.5848190000000 1.0   0.02
S      3  0.5616710000000  0.5830720000000 -0.0017470000000 1.0   0.02
S      3  0.5616710000000 -0.5848190000000 -0.5830720000000 1.0   0.02
S      3 -0.2503360000000 -0.0000000000000  0.0000000000000 1.0  -0.11
S      3 -0.1937550000000 -0.3333330000000  0.3333330000000 1.0   0.07
Fe     4  0.5141260000000 -0.1978390000000  0.2839620000000 1.0  -2.27
Fe     4  0.5141260000000 -0.5181990000000  0.1978390000000 1.0  -2.27
Fe     4  0.5141260000000 -0.2839620000000  0.5181990000000 1.0  -2.27
Fe     4 -0.1112060000000 -0.0573040000000 -0.3131630000000 1.0  -2.75
Fe     4 -0.1112060000000 -0.2558580000000  0.0573040000000 1.0  -2.75
Fe     4 -0.1112060000000  0.3131630000000  0.2558580000000 1.0  -2.75
END
