TITL LFSO-Li5FeS3O-200910-091418-87e76e -0.5294 210.143125 -3.20988000E+003 4.95539 5.06248 10 (C2/m) n - 1
REM
REM Run started: Thu, 10 Sep 2020 12:33:36 +0100 in /lustre/scratch/uccabz1/launch_tmp/launcher_2020-09-10-11-22-41-584880
REM CASTEP 20.1 from code version af48c487+ pr-geom-scf-spinfix Tue Jun 2 15:39:59 2020 +0100
REM Functional Perdew Burke Ernzerhof Relativity Koelling-Harmon Dispersion off
REM Cut-off 340.0000 eV Grid scale 1.7500 Gmax 16.5316 1/A FBSC none
REM MP grid 4 4 2 Offset 0.000 0.000 0.000 No. kpts 10 Spacing 0.07
REM Total runtime: 10889 s
REM Overall efficiency: 80 %
REM
REM
REM
REM compiler GCC version 4.9.2
REM options -cpp -iprefix /lustre/shared/ucl/apps/gcc/4.9.2/bin/../lib/gcc/x86_64-unknown-linux-gnu/4.9.2/ -mtune=corei7 -march=x86-64 -g -Og
REM COMMAND_LINE
REM seed 1268078716 749094782 -1519360110 709228662 -712802386 796413091 -1617428595 2096509683 1019666042 339474133 1575340439 -703280808
REM
REM S 3|1.8|5|6|7|30:31:32(qc=5)
REM O 2|1.5|12|13|15|20:21(qc=5)
REM Li 1|1.3|8|9|10|10U:20(qc=5)
REM Fe 3|2.2|2.0|1.0|8|9|10|40:41:32(qc=5)
REM 
CELL 1.54180    4.71800    4.71800   11.33814  113.27736  113.27736   88.90000
LATT -1
SFAC Li O  S  Fe 
Li     1 -0.3046560000000  0.3041360000000  0.1136900000000 1.0  -0.02
Li     1 -0.3041360000000  0.3046560000000 -0.1136900000000 1.0  -0.02
Li     1  0.3046560000000 -0.3041360000000 -0.1136900000000 1.0  -0.02
Li     1  0.3041360000000 -0.3046560000000  0.1136900000000 1.0  -0.02
Li     1 -0.5000000000000 -0.5000000000000  0.5000000000000 1.0  -0.03
O      2  0.5000000000000 -0.5000000000000  0.0000000000000 1.0   0.45
S      3 -0.3844040000000 -0.3844040000000  0.3448180000000 1.0   0.22
S      3  0.3844040000000  0.3844040000000 -0.3448180000000 1.0   0.22
S      3  0.0000000000000  0.0000000000000  0.0000000000000 1.0   0.44
Fe     4  0.0000000000000  0.0000000000000  0.5000000000000 1.0   3.71
END
