TITL LFSO-Li2Fe3SO3-200912-170249-aebfac -0.0216 115.294934 -4.60580889E+003 8.56452 8.92918 9 (P-6) n - 1
REM
REM Run started: Sat, 12 Sep 2020 17:46:44 +0100 in /lustre/scratch/uccabz1/launch_tmp/launcher_2020-09-12-16-02-48-160740
REM CASTEP 20.1 from code version af48c487+ pr-geom-scf-spinfix Tue Jun 2 15:39:59 2020 +0100
REM Functional Perdew Burke Ernzerhof Relativity Koelling-Harmon Dispersion off
REM Cut-off 340.0000 eV Grid scale 1.7500 Gmax 16.5316 1/A FBSC none
REM MP grid 3 3 4 Offset 0.000 0.000 0.000 No. kpts 10 Spacing 0.07
REM Total runtime: 2739.02 s
REM Overall efficiency: 79.3333 %
REM
REM
REM
REM compiler GCC version 4.9.2
REM options -cpp -iprefix /lustre/shared/ucl/apps/gcc/4.9.2/bin/../lib/gcc/x86_64-unknown-linux-gnu/4.9.2/ -mtune=corei7 -march=x86-64 -g -Og
REM COMMAND_LINE
REM seed -1996289376 -897860672 -537996910 -670263402 2036794861 -2117851032 -263823159 2143220441 768217432 2039166145 -403241187 872577790
REM
REM S 3|1.8|5|6|7|30:31:32(qc=5)
REM O 2|1.5|12|13|15|20:21(qc=5)
REM Li 1|1.3|8|9|10|10U:20(qc=5)
REM Fe 3|2.2|2.0|1.0|8|9|10|40:41:32(qc=5)
REM 
CELL 1.54180    5.96615    5.96615    3.74017   90.00000   90.00000  120.00000
LATT -1
SFAC Li O  S  Fe 
Li     1 -0.3333330000000  0.3333330000000  0.6761840000000 1.0  -0.11
Li     1 -0.0000000000000  0.0000000000000 -0.3177040000000 1.0  -0.01
O      2 -0.4110390000000 -0.3925990000000 -0.3198770000000 1.0   0.23
O      2  0.0184400000000  0.4110390000000 -0.3198770000000 1.0   0.23
O      2  0.3925990000000 -0.0184400000000 -0.3198770000000 1.0   0.23
S      3 -0.0000000000000  0.0000000000000  0.1823100000000 1.0  -0.04
Fe     4 -0.4275990000000 -0.3466890000000  0.1784460000000 1.0   2.68
Fe     4  0.0809100000000  0.4275990000000  0.1784460000000 1.0   2.68
Fe     4  0.3466890000000 -0.0809100000000  0.1784460000000 1.0   2.68
END
