TITL LFSO-Li4Fe2S4O-200910-202328-a8746c 0.0030 405.962825 -8.36307712E+003 -0.737922E-03 14.9361 22 (Pc) n - 1
REM
REM Run started: Fri, 11 Sep 2020 17:30:44 +0100 in /lustre/scratch/uccabz1/launch_tmp/launcher_2020-09-10-19-23-26-485103
REM CASTEP 20.1 from code version af48c487+ pr-geom-scf-spinfix Tue Jun 2 15:39:59 2020 +0100
REM Functional Perdew Burke Ernzerhof Relativity Koelling-Harmon Dispersion off
REM Cut-off 340.0000 eV Grid scale 1.7500 Gmax 16.5316 1/A FBSC none
REM MP grid 2 4 2 Offset 0.000 0.000 0.000 No. kpts 4 Spacing 0.07
REM Total runtime: 81189.6 s
REM Overall efficiency: 96.8333 %
REM
REM
REM
REM compiler GCC version 4.9.2
REM options -cpp -iprefix /lustre/shared/ucl/apps/gcc/4.9.2/bin/../lib/gcc/x86_64-unknown-linux-gnu/4.9.2/ -mtune=corei7 -march=x86-64 -g -Og
REM COMMAND_LINE
REM seed -719938405 -1789779026 1762509600 347209461 1248946693 -1400854537 -1015244904 -2135968188 -1264194285 -448084618 864775955 341238009
REM
REM S 3|1.8|5|6|7|30:31:32(qc=5)
REM O 2|1.5|12|13|15|20:21(qc=5)
REM Li 1|1.3|8|9|10|10U:20(qc=5)
REM Fe 3|2.2|2.0|1.0|8|9|10|40:41:32(qc=5)
REM 
CELL 1.54180    7.50235    6.51934   11.96357  136.06952   90.00000   90.00000
LATT -1
SFAC Li O  S  Fe 
Li     1  0.2871950000000  0.3725690000000  0.1561900000000 1.0   0.07
Li     1 -0.2871950000000  0.3725690000000 -0.3438100000000 1.0   0.07
Li     1  0.2365870000000 -0.2401370000000 -0.1604260000000 1.0   0.04
Li     1 -0.2365870000000 -0.2401370000000  0.3395740000000 1.0   0.04
Li     1  0.4331110000000 -0.4168020000000  0.0604730000000 1.0  -0.04
Li     1 -0.4331110000000 -0.4168020000000 -0.4395270000000 1.0  -0.04
Li     1 -0.1604100000000  0.0080300000000 -0.2430840000000 1.0  -0.04
Li     1  0.1604100000000  0.0080300000000  0.2569160000000 1.0  -0.04
O      2 -0.3012950000000 -0.2453450000000 -0.2501800000000 1.0  -0.36
O      2  0.3012950000000 -0.2453450000000  0.2498200000000 1.0  -0.36
S      3  0.2655360000000  0.4475520000000 -0.4497520000000 1.0   0.02
S      3 -0.2655360000000  0.4475520000000  0.0502480000000 1.0   0.02
S      3  0.1990570000000  0.1976390000000 -0.1036800000000 1.0   0.36
S      3 -0.1990570000000  0.1976390000000  0.3963200000000 1.0   0.36
S      3  0.5169790000000 -0.0243470000000 -0.4235140000000 1.0  -0.00
S      3 -0.5169790000000 -0.0243470000000  0.0764860000000 1.0  -0.00
S      3  0.0355460000000 -0.0760440000000 -0.4711210000000 1.0   0.02
S      3 -0.0355460000000 -0.0760440000000  0.0288790000000 1.0   0.02
Fe     4 -0.2554450000000 -0.1038270000000  0.1417960000000 1.0   3.19
Fe     4  0.2554450000000 -0.1038270000000 -0.3582040000000 1.0   3.19
Fe     4 -0.2884890000000  0.0052470000000 -0.0356720000000 1.0  -3.26
Fe     4  0.2884890000000  0.0052470000000 -0.5356720000000 1.0  -3.26
END
