TITL LFSO-Li4Fe3S2O3-200928-045637-a33a94 0.0094 368.625631 -1.06215929E+004 19.3614 20.2795 24 (P3) n - 1
REM
REM Run started: Mon, 28 Sep 2020 20:59:22 +0100 in /scratch/scratch/uccabz1/launch_tmp/launcher_2020-09-28-03-56-35-600452
REM CASTEP 19.11| from code version Version unavailable
REM Functional Perdew Burke Ernzerhof Relativity Koelling-Harmon Dispersion off
REM Cut-off 340.0000 eV Grid scale 1.7500 Gmax 16.5316 1/A FBSC none
REM MP grid 4 2 2 Offset 0.000 0.000 0.000 No. kpts 8 Spacing 0.07
REM Total runtime: 57995.6 s
REM Overall efficiency: 98.6364 %
REM
REM
REM
REM compiler GCC version 4.9.2
REM options -cpp -iprefix /scratch/UCL/applications/gcc/4.9.2/bin/../lib/gcc/x86_64-unknown-linux-gnu/4.9.2/ -mtune=corei7 -march=x86-64 -g -O2
REM COMMAND_LINE
REM seed 1718362116 1017389375 -1581518890 -2086221970 383440609 -843501275 2033456233 -2029284082 1909982265 -575165609 -397185610 174158592
REM
REM S 3|1.8|5|6|7|30:31:32(qc=5)
REM O 2|1.5|12|13|15|20:21(qc=5)
REM Li 1|1.3|8|9|10|10U:20(qc=5)
REM Fe 3|2.2|2.0|1.0|8|9|10|40:41:32(qc=5)
REM 
CELL 1.54180    3.72612   10.68806   10.68806  120.00000   90.00000   90.00000
LATT -1
SFAC Li O  S  Fe 
Li     1  0.3730470000000 -0.1169890000000  0.2002550000000 1.0  -0.02
Li     1  0.3730470000000 -0.2002550000000 -0.3172440000000 1.0  -0.02
Li     1  0.3730470000000  0.3172440000000  0.1169890000000 1.0  -0.02
Li     1  0.3261740000000 -0.5028710000000 -0.1686560000000 1.0   0.00
Li     1  0.3261740000000  0.1686560000000  0.6657850000000 1.0   0.00
Li     1  0.3261740000000 -0.6657850000000  0.5028710000000 1.0   0.00
Li     1  0.3305270000000 -0.3333330000000  0.3333330000000 1.0  -0.11
Li     1  0.3257350000000  0.0000000000000  0.0000000000000 1.0  -0.38
O      2 -0.1657240000000 -0.0165050000000  0.1832950000000 1.0   0.20
O      2 -0.1657240000000 -0.1832950000000 -0.1998000000000 1.0   0.20
O      2 -0.1657240000000  0.1998000000000  0.0165050000000 1.0   0.20
O      2  0.3422930000000 -0.1462470000000  0.3605210000000 1.0   0.27
O      2  0.3422930000000 -0.3605210000000 -0.5067690000000 1.0   0.27
O      2  0.3422930000000  0.5067690000000  0.1462470000000 1.0   0.27
S      3 -0.1620400000000 -0.0096750000000 -0.3479970000000 1.0   0.22
S      3 -0.1620400000000  0.3479970000000  0.3383220000000 1.0   0.22
S      3 -0.1620400000000 -0.3383220000000  0.0096750000000 1.0   0.22
S      3 -0.1669200000000  0.3333330000000 -0.3333330000000 1.0  -0.04
Fe     4 -0.1591160000000 -0.3962300000000  0.4502460000000 1.0   3.41
Fe     4 -0.1591160000000 -0.4502460000000  0.1535240000000 1.0   3.41
Fe     4 -0.1591160000000 -0.1535240000000  0.3962300000000 1.0   3.41
Fe     4 -0.1729410000000  0.1317690000000  0.1452750000000 1.0   2.53
Fe     4 -0.1729410000000 -0.1452750000000 -0.0135060000000 1.0   2.53
Fe     4 -0.1729410000000  0.0135060000000 -0.1317690000000 1.0   2.53
END
