TITL LFSO-LiFe3SO4-200909-022958-386752 1.0539 232.625847 -9.68458225E+003 0.238273E-03 0.420279E-01 18 (R3) n - 1
REM
REM Run started: Wed, 09 Sep 2020 19:35:00 +0100 in /lustre/scratch/uccabz1/launch_tmp/launcher_2020-09-09-01-29-56-185398
REM CASTEP 20.1 from code version af48c487+ pr-geom-scf-spinfix Tue Jun 2 15:39:59 2020 +0100
REM Functional Perdew Burke Ernzerhof Relativity Koelling-Harmon Dispersion off
REM Cut-off 340.0000 eV Grid scale 1.7500 Gmax 16.5316 1/A FBSC none
REM MP grid 3 3 2 Offset 0.000 0.000 0.000 No. kpts 7 Spacing 0.07
REM Total runtime: 68458.8 s
REM Overall efficiency: 83.6923 %
REM
REM
REM
REM compiler GCC version 4.9.2
REM options -cpp -iprefix /lustre/shared/ucl/apps/gcc/4.9.2/bin/../lib/gcc/x86_64-unknown-linux-gnu/4.9.2/ -mtune=corei7 -march=x86-64 -g -Og
REM COMMAND_LINE
REM seed 662395719 -1704324504 1533926145 -429472254 -379807064 -2007905305 1459346623 -219916608 1321176863 -1491909199 1937739189 231734486
REM
REM S 3|1.8|5|6|7|30:31:32(qc=5)
REM O 2|1.5|12|13|15|20:21(qc=5)
REM Li 1|1.3|8|9|10|10U:20(qc=5)
REM Fe 3|2.2|2.0|1.0|8|9|10|40:41:32(qc=5)
REM 
CELL 1.54180    5.67640    5.67640    8.95750   71.52731   71.52731   60.00000
LATT -1
SFAC Li O  S  Fe 
Li     1 -0.3181330000000 -0.3181330000000 -0.0456010000000 1.0  -0.00
Li     1  0.5338920000000  0.5338920000000 -0.6016750000000 1.0  -0.00
O      2 -0.1396720000000  0.2802480000000  0.4819850000000 1.0   0.00
O      2  0.3774380000000 -0.1396720000000  0.4819850000000 1.0   0.00
O      2  0.2802480000000  0.3774380000000  0.4819850000000 1.0   0.00
O      2 -0.1744520000000 -0.2697780000000  0.2274340000000 1.0  -0.00
O      2  0.2167950000000 -0.1744520000000  0.2274340000000 1.0  -0.00
O      2 -0.2697780000000  0.2167950000000  0.2274340000000 1.0  -0.00
O      2 -0.3897440000000 -0.3897440000000  0.1692310000000 1.0   0.00
O      2 -0.2457270000000 -0.2457270000000  0.7371800000000 1.0   0.00
S      3  0.4050780000000  0.4050780000000 -0.2152330000000 1.0  -0.00
S      3  0.0612090000000  0.0612090000000 -0.1836270000000 1.0  -0.00
Fe     4  0.0488060000000  0.4946220000000 -0.6577180000000 1.0  -0.01
Fe     4  0.1142900000000  0.0488060000000 -0.6577180000000 1.0  -0.01
Fe     4  0.4946220000000  0.1142900000000 -0.6577180000000 1.0  -0.01
Fe     4 -0.2169090000000  0.0967280000000 -0.3127880000000 1.0   0.01
Fe     4 -0.5670310000000 -0.2169090000000 -0.3127880000000 1.0   0.01
Fe     4  0.0967280000000 -0.5670310000000 -0.3127880000000 1.0   0.01
END
