TITL LFSO-Li4Fe2S2O3-200911-075528-bf90a0 -0.0264 576.415759 -8.88759698E+003 1.83471 1.93795 22 (Cmm2) n - 1
REM
REM Run started: Fri, 11 Sep 2020 20:17:43 +0100 in /lustre/scratch/uccabz1/launch_tmp/launcher_2020-09-11-13-16-10-499130
REM CASTEP 20.1 from code version af48c487+ pr-geom-scf-spinfix Tue Jun 2 15:39:59 2020 +0100
REM Functional Perdew Burke Ernzerhof Relativity Koelling-Harmon Dispersion off
REM Cut-off 340.0000 eV Grid scale 1.7500 Gmax 16.5316 1/A FBSC none
REM MP grid 2 2 2 Offset 0.000 0.000 0.000 No. kpts 2 Spacing 0.07
REM Total runtime: 43294.2 s
REM Overall efficiency: 93.3333 %
REM
REM
REM
REM compiler GCC version 4.9.2
REM options -cpp -iprefix /lustre/shared/ucl/apps/gcc/4.9.2/bin/../lib/gcc/x86_64-unknown-linux-gnu/4.9.2/ -mtune=corei7 -march=x86-64 -g -Og
REM COMMAND_LINE
REM seed -1290507320 493245086 -426157354 -1364981693 608623936 -341055392 -1224913895 22623655 -1456058691 1913866657 -1668922646 633983591
REM
REM S 3|1.8|5|6|7|30:31:32(qc=5)
REM O 2|1.5|12|13|15|20:21(qc=5)
REM Li 1|1.3|8|9|10|10U:20(qc=5)
REM Fe 3|2.2|2.0|1.0|8|9|10|40:41:32(qc=5)
REM 
CELL 1.54180    7.67269    7.14495   11.19252   90.00000  110.04508   90.00000
LATT -1
SFAC Li O  S  Fe 
Li     1 -0.4165630000000  0.3330420000000 -0.3301640000000 1.0  -0.03
Li     1  0.4165630000000  0.3330420000000  0.3301640000000 1.0  -0.03
Li     1 -0.0863990000000  0.3330420000000  0.3301640000000 1.0  -0.03
Li     1  0.0863990000000  0.3330420000000 -0.3301640000000 1.0  -0.03
Li     1 -0.3110390000000 -0.1052430000000 -0.1920820000000 1.0   0.00
Li     1  0.3110390000000 -0.1052430000000  0.1920820000000 1.0   0.00
Li     1 -0.1189570000000 -0.1052430000000  0.1920820000000 1.0   0.00
Li     1  0.1189570000000 -0.1052430000000 -0.1920820000000 1.0   0.00
O      2 -0.3004600000000  0.1409670000000 -0.1869240000000 1.0   0.01
O      2  0.3004600000000  0.1409670000000  0.1869240000000 1.0   0.01
O      2 -0.1135360000000  0.1409670000000  0.1869240000000 1.0   0.01
O      2  0.1135360000000  0.1409670000000 -0.1869240000000 1.0   0.01
O      2  0.0000000000000 -0.6695090000000 -0.5000000000000 1.0   0.93
O      2 -0.5000000000000 -0.6695090000000 -0.5000000000000 1.0   0.93
S      3  0.3028140000000 -0.4199810000000  0.1544630000000 1.0   0.01
S      3 -0.3028140000000 -0.4199810000000 -0.1544630000000 1.0   0.01
S      3  0.1483510000000 -0.4199810000000 -0.1544630000000 1.0   0.01
S      3 -0.1483510000000 -0.4199810000000  0.1544630000000 1.0   0.01
Fe     4 -0.0841810000000  0.3247310000000  0.0991180000000 1.0   0.00
Fe     4  0.0841810000000  0.3247310000000 -0.0991180000000 1.0   0.00
Fe     4 -0.1833000000000  0.3247310000000 -0.0991180000000 1.0   0.00
Fe     4  0.1833000000000  0.3247310000000  0.0991180000000 1.0   0.00
END
