TITL LFSO-Li4Fe3S2O3-201001-000017-0da1ab 0.0461 158.430390 -5.31154553E+003 9.33916 9.64253 12 (P2) n - 1
REM
REM Run started: Thu, 01 Oct 2020 01:48:54 +0100 in /lustre/scratch/uccabz1/launch_tmp/launcher_2020-09-30-23-00-15-945975
REM CASTEP 20.1 from code version af48c487+ pr-geom-scf-spinfix Tue Jun 2 15:39:59 2020 +0100
REM Functional Perdew Burke Ernzerhof Relativity Koelling-Harmon Dispersion off
REM Cut-off 340.0000 eV Grid scale 1.7500 Gmax 16.5316 1/A FBSC none
REM MP grid 4 4 3 Offset 0.000 0.000 0.000 No. kpts 16 Spacing 0.07
REM Total runtime: 6561.58 s
REM Overall efficiency: 89.5556 %
REM
REM
REM
REM compiler GCC version 4.9.2
REM options -cpp -iprefix /lustre/shared/ucl/apps/gcc/4.9.2/bin/../lib/gcc/x86_64-unknown-linux-gnu/4.9.2/ -mtune=corei7 -march=x86-64 -g -Og
REM COMMAND_LINE
REM seed -494865924 1203267571 527465900 -1745512362 1730235286 -1066804442 2028479360 -1638144090 -1880247020 -550584362 718800875 -1294398270
REM
REM S 3|1.8|5|6|7|30:31:32(qc=5)
REM O 2|1.5|12|13|15|20:21(qc=5)
REM Li 1|1.3|8|9|10|10U:20(qc=5)
REM Fe 3|2.2|2.0|1.0|8|9|10|40:41:32(qc=5)
REM 
CELL 1.54180    7.42331    7.19173    4.83064   90.00000   90.00000  142.09658
LATT -1
SFAC Li O  S  Fe 
Li     1  0.1511570000000 -0.1914680000000 -0.0160680000000 1.0  -0.03
Li     1 -0.1511570000000  0.1914680000000 -0.0160680000000 1.0  -0.03
Li     1 -0.0799620000000 -0.2101880000000  0.5232370000000 1.0  -0.07
Li     1  0.0799620000000  0.2101880000000  0.5232370000000 1.0  -0.07
O      2  0.2723100000000  0.1325020000000 -0.3039120000000 1.0   0.21
O      2 -0.2723100000000 -0.1325020000000 -0.3039120000000 1.0   0.21
O      2  0.0000000000000  0.5000000000000 -0.2986660000000 1.0   0.25
S      3 -0.3463170000000  0.3706850000000  0.1931810000000 1.0   0.11
S      3  0.3463170000000 -0.3706850000000  0.1931810000000 1.0   0.11
Fe     4 -0.3784930000000  0.2858640000000 -0.3266620000000 1.0   2.63
Fe     4  0.3784930000000 -0.2858640000000 -0.3266620000000 1.0   2.63
Fe     4 -0.5000000000000 -0.5000000000000 -0.0760530000000 1.0   3.39
END
