TITL LFSO-Li2Fe2SO3-200913-081757-b99698 0.0083 239.740736 -7.48914333E+003 9.79867 16.9448 16 (R3) n - 1
REM
REM Run started: Mon, 14 Sep 2020 07:51:55 +0100 in /lustre/scratch/uccabz1/launch_tmp/launcher_2020-09-14-06-36-11-227059
REM CASTEP 20.1 from code version af48c487+ pr-geom-scf-spinfix Tue Jun 2 15:39:59 2020 +0100
REM Functional Perdew Burke Ernzerhof Relativity Koelling-Harmon Dispersion off
REM Cut-off 340.0000 eV Grid scale 1.7500 Gmax 16.5316 1/A FBSC none
REM MP grid 3 3 4 Offset 0.000 0.000 0.000 No. kpts 14 Spacing 0.07
REM Total runtime: 41005.2 s
REM Overall efficiency: 97.8182 %
REM
REM
REM
REM compiler GCC version 4.9.2
REM options -cpp -iprefix /lustre/shared/ucl/apps/gcc/4.9.2/bin/../lib/gcc/x86_64-unknown-linux-gnu/4.9.2/ -mtune=corei7 -march=x86-64 -g -Og
REM COMMAND_LINE
REM seed -861644266 393725358 -857410645 -2112224185 800900677 -191377202 1477074396 -1043504765 787395743 28954095 -1595965774 -678950058
REM
REM S 3|1.8|5|6|7|30:31:32(qc=5)
REM O 2|1.5|12|13|15|20:21(qc=5)
REM Li 1|1.3|8|9|10|10U:20(qc=5)
REM Fe 3|2.2|2.0|1.0|8|9|10|40:41:32(qc=5)
REM 
CELL 1.54180    7.72645    7.72645    6.43448   53.10187   53.10187   60.00000
LATT -1
SFAC Li O  S  Fe 
Li     1 -0.5683000000000 -0.2650800000000 -0.2889000000000 1.0  -0.03
Li     1 -0.2650800000000  0.1222790000000 -0.2889000000000 1.0  -0.03
Li     1  0.1222790000000 -0.5683000000000 -0.2889000000000 1.0  -0.03
Li     1 -0.2163100000000 -0.2163100000000  0.6489290000000 1.0   0.02
O      2 -0.1134750000000 -0.3639440000000  0.0109430000000 1.0   0.05
O      2 -0.3639440000000 -0.5335250000000  0.0109430000000 1.0   0.05
O      2 -0.5335250000000 -0.1134750000000  0.0109430000000 1.0   0.05
O      2  0.0606580000000  0.6375600000000  0.3945380000000 1.0   0.45
O      2  0.6375600000000 -0.0927580000000  0.3945380000000 1.0   0.45
O      2 -0.0927580000000  0.0606580000000  0.3945380000000 1.0   0.45
S      3  0.4440260000000  0.4440260000000 -0.3320790000000 1.0  -0.17
S      3  0.0616890000000  0.0616890000000 -0.1850680000000 1.0   0.58
Fe     4  0.1716250000000 -0.0990720000000  0.1924180000000 1.0   3.75
Fe     4 -0.0990720000000 -0.2649730000000  0.1924180000000 1.0   3.75
Fe     4 -0.2649730000000  0.1716250000000  0.1924180000000 1.0   3.75
Fe     4 -0.3973690000000 -0.3973690000000  0.1921050000000 1.0  -3.32
END
