TITL LFSO-Li3FeS2O-200911-181755-f02eb1 -0.0409 254.689003 -5.01992722E+003 3.99542 4.89279 14 (R3) n - 1
REM
REM Run started: Sat, 12 Sep 2020 06:06:52 +0100 in /lustre/scratch/uccabz1/launch_tmp/launcher_2020-09-11-17-17-53-652642
REM CASTEP 20.1 from code version af48c487+ pr-geom-scf-spinfix Tue Jun 2 15:39:59 2020 +0100
REM Functional Perdew Burke Ernzerhof Relativity Koelling-Harmon Dispersion off
REM Cut-off 340.0000 eV Grid scale 1.7500 Gmax 16.5316 1/A FBSC none
REM MP grid 3 3 3 Offset 0.000 0.000 0.000 No. kpts 6 Spacing 0.07
REM Total runtime: 45728.7 s
REM Overall efficiency: 98.1667 %
REM
REM
REM
REM compiler GCC version 4.9.2
REM options -cpp -iprefix /lustre/shared/ucl/apps/gcc/4.9.2/bin/../lib/gcc/x86_64-unknown-linux-gnu/4.9.2/ -mtune=corei7 -march=x86-64 -g -Og
REM COMMAND_LINE
REM seed 644009813 -1005897110 -966837383 270941879 1206612985 -1135538388 -51494078 1341418934 -112453490 -2060006569 -1212369464 639453352
REM
REM S 3|1.8|5|6|7|30:31:32(qc=5)
REM O 2|1.5|12|13|15|20:21(qc=5)
REM Li 1|1.3|8|9|10|10U:20(qc=5)
REM Fe 3|2.2|2.0|1.0|8|9|10|40:41:32(qc=5)
REM 
CELL 1.54180    8.77385    8.77385    8.77385   40.29596   40.29596   40.29596
LATT -1
SFAC Li O  S  Fe 
Li     1  0.2175830000000  0.3638370000000 -0.2940480000000 1.0   0.03
Li     1  0.3638370000000 -0.2940480000000  0.2175830000000 1.0   0.03
Li     1 -0.2940480000000  0.2175830000000  0.3638370000000 1.0   0.03
Li     1 -0.5755060000000  0.0161420000000  0.5728560000000 1.0  -0.01
Li     1  0.0161420000000  0.5728560000000 -0.5755060000000 1.0  -0.01
Li     1  0.5728560000000 -0.5755060000000  0.0161420000000 1.0  -0.01
O      2 -0.2913830000000 -0.2913830000000 -0.2913830000000 1.0   0.17
O      2  0.3783310000000  0.3783310000000  0.3783310000000 1.0   0.01
S      3  0.1078170000000 -0.1239850000000 -0.4922380000000 1.0   0.05
S      3 -0.1239850000000 -0.4922380000000  0.1078170000000 1.0   0.05
S      3 -0.4922380000000  0.1078170000000 -0.1239850000000 1.0   0.05
S      3 -0.0153190000000 -0.0153190000000 -0.0153190000000 1.0   0.15
Fe     4 -0.2175420000000 -0.2175420000000 -0.2175420000000 1.0   0.24
Fe     4 -0.1088740000000 -0.1088740000000 -0.1088740000000 1.0   3.21
END
