TITL LFSO-Li2Fe2SO3-200913-091217-315b28 0.0472 106.551667 -3.74444155E+003 7.19368 7.25101 8 (P2/m) n - 1
REM
REM Run started: Sun, 13 Sep 2020 10:30:17 +0100 in /lustre/scratch/uccabz1/launch_tmp/launcher_2020-09-13-08-12-15-570202
REM CASTEP 20.1 from code version af48c487+ pr-geom-scf-spinfix Tue Jun 2 15:39:59 2020 +0100
REM Functional Perdew Burke Ernzerhof Relativity Koelling-Harmon Dispersion off
REM Cut-off 340.0000 eV Grid scale 1.7500 Gmax 16.5316 1/A FBSC none
REM MP grid 6 4 3 Offset 0.000 0.000 0.000 No. kpts 18 Spacing 0.07
REM Total runtime: 4720.78 s
REM Overall efficiency: 92.1 %
REM
REM
REM
REM compiler GCC version 4.9.2
REM options -cpp -iprefix /lustre/shared/ucl/apps/gcc/4.9.2/bin/../lib/gcc/x86_64-unknown-linux-gnu/4.9.2/ -mtune=corei7 -march=x86-64 -g -Og
REM COMMAND_LINE
REM seed -1023183512 -1394060996 -902852181 543384887 -1354928043 -1047937717 1583802383 1996639041 1469359715 1602931902 54366519 1871300674
REM
REM S 3|1.8|5|6|7|30:31:32(qc=5)
REM O 2|1.5|12|13|15|20:21(qc=5)
REM Li 1|1.3|8|9|10|10U:20(qc=5)
REM Fe 3|2.2|2.0|1.0|8|9|10|40:41:32(qc=5)
REM 
CELL 1.54180    2.73240    6.65886    9.65029  142.63850   90.00000   90.00000
LATT -1
SFAC Li O  S  Fe 
Li     1  0.0000000000000  0.4335060000000 -0.3725350000000 1.0  -0.03
Li     1  0.0000000000000 -0.4335060000000  0.3725350000000 1.0  -0.03
O      2  0.5000000000000  0.1514720000000 -0.5878820000000 1.0   0.26
O      2 -0.5000000000000 -0.1514720000000  0.5878820000000 1.0   0.26
O      2 -0.5000000000000 -0.5000000000000  0.0000000000000 1.0   0.19
S      3  0.0000000000000  0.0000000000000  0.0000000000000 1.0   0.22
Fe     4  0.0000000000000  0.1440020000000 -0.1910350000000 1.0   3.16
Fe     4  0.0000000000000 -0.1440020000000  0.1910350000000 1.0   3.16
END
