TITL LFSO-LiFe3S3O2-200909-152905-9fb3ad -0.0035 350.074436 -9.15452118E+003 10.0174 11.2994 18 (P3) n - 1
REM
REM Run started: Wed, 09 Sep 2020 22:12:52 +0100 in /lustre/scratch/uccabz1/launch_tmp/launcher_2020-09-09-14-29-03-963246
REM CASTEP 20.1 from code version af48c487+ pr-geom-scf-spinfix Tue Jun 2 15:39:59 2020 +0100
REM Functional Perdew Burke Ernzerhof Relativity Koelling-Harmon Dispersion off
REM Cut-off 340.0000 eV Grid scale 1.7500 Gmax 16.5316 1/A FBSC none
REM MP grid 3 2 2 Offset 0.000 0.000 0.000 No. kpts 6 Spacing 0.07
REM Total runtime: 31315.4 s
REM Overall efficiency: 95.875 %
REM
REM
REM
REM compiler GCC version 4.9.2
REM options -cpp -iprefix /lustre/shared/ucl/apps/gcc/4.9.2/bin/../lib/gcc/x86_64-unknown-linux-gnu/4.9.2/ -mtune=corei7 -march=x86-64 -g -Og
REM COMMAND_LINE
REM seed -477437969 -722270604 828071044 1352568802 1916896453 -969418253 2054990560 966650134 1262227930 -710161942 -639182488 1941358865
REM
REM S 3|1.8|5|6|7|30:31:32(qc=5)
REM O 2|1.5|12|13|15|20:21(qc=5)
REM Li 1|1.3|8|9|10|10U:20(qc=5)
REM Fe 3|2.2|2.0|1.0|8|9|10|40:41:32(qc=5)
REM 
CELL 1.54180    5.56156    8.52543    8.52543  120.00000   90.00000   90.00000
LATT -1
SFAC Li O  S  Fe 
Li     1 -0.2776020000000  0.0000000000000 -0.0000000000000 1.0   0.01
Li     1  0.4066300000000 -0.3333330000000  0.3333330000000 1.0   0.01
O      2 -0.0229650000000 -0.0251970000000  0.1645430000000 1.0   0.33
O      2 -0.0229650000000 -0.1645430000000 -0.1897410000000 1.0   0.33
O      2 -0.0229650000000  0.1897410000000  0.0251970000000 1.0   0.33
O      2  0.3782660000000  0.0000000000000 -0.0000000000000 1.0   0.37
S      3 -0.5406450000000 -0.3805990000000 -0.2393110000000 1.0  -0.11
S      3 -0.5406450000000  0.2393110000000 -0.1412880000000 1.0  -0.11
S      3 -0.5406450000000  0.1412880000000  0.3805990000000 1.0  -0.11
S      3  0.0861940000000 -0.0819010000000  0.5344220000000 1.0  -0.01
S      3  0.0861940000000 -0.5344220000000  0.3836770000000 1.0  -0.01
S      3  0.0861940000000 -0.3836770000000  0.0819010000000 1.0  -0.01
Fe     4  0.1543520000000 -0.2050280000000 -0.0363410000000 1.0   2.50
Fe     4  0.1543520000000  0.0363410000000 -0.1686870000000 1.0   2.50
Fe     4  0.1543520000000  0.1686870000000  0.2050280000000 1.0   2.50
Fe     4  0.2909630000000  0.1506900000000 -0.3922880000000 1.0   0.50
Fe     4  0.2909630000000  0.3922880000000 -0.4570220000000 1.0   0.50
Fe     4  0.2909630000000  0.4570220000000 -0.1506900000000 1.0   0.50
END
