TITL LFSO-Li5FeS2O2-200920-232928-805845 -1.0242 166.520903 -3.34664291E+003 3.00119 3.33434 10 (Pm) n - 1
REM
REM Run started: Mon, 21 Sep 2020 04:08:57 +0100 in /lustre/scratch/uccabz1/launch_tmp/launcher_2020-09-20-22-29-26-710253
REM CASTEP 20.1 from code version af48c487+ pr-geom-scf-spinfix Tue Jun 2 15:39:59 2020 +0100
REM Functional Perdew Burke Ernzerhof Relativity Koelling-Harmon Dispersion off
REM Cut-off 340.0000 eV Grid scale 1.7500 Gmax 16.5316 1/A FBSC none
REM MP grid 7 3 5 Offset 0.000 0.000 0.000 No. kpts 36 Spacing 0.07
REM Total runtime: 19689.6 s
REM Overall efficiency: 97.3333 %
REM
REM
REM
REM compiler GCC version 4.9.2
REM options -cpp -iprefix /lustre/shared/ucl/apps/gcc/4.9.2/bin/../lib/gcc/x86_64-unknown-linux-gnu/4.9.2/ -mtune=corei7 -march=x86-64 -g -Og
REM COMMAND_LINE
REM seed 1862708353 -1672858169 1231449388 1755861932 2006463517 -2060381440 1124319689 737862602 986667579 -1329423792 -617904920 732735283
REM
REM S 3|1.8|5|6|7|30:31:32(qc=5)
REM O 2|1.5|12|13|15|20:21(qc=5)
REM Li 1|1.3|8|9|10|10U:20(qc=5)
REM Fe 3|2.2|2.0|1.0|8|9|10|40:41:32(qc=5)
REM 
CELL 1.54180    6.34299    7.67356    9.22036   90.00000  158.21975   90.00000
LATT -1
SFAC Li O  S  Fe 
Li     1  0.0202030000000  0.2220120000000  0.1292940000000 1.0  -0.01
Li     1  0.0202030000000 -0.2220120000000  0.1292940000000 1.0  -0.01
Li     1 -0.0737260000000  0.2233430000000  0.3693280000000 1.0  -0.02
Li     1 -0.0737260000000 -0.2233430000000  0.3693280000000 1.0  -0.02
Li     1 -0.0053770000000  0.5000000000000 -0.2933760000000 1.0   0.02
O      2  0.3987170000000 -0.1833030000000 -0.1525990000000 1.0   0.19
O      2  0.3987170000000  0.1833030000000 -0.1525990000000 1.0   0.19
S      3 -0.0988700000000 -0.2315630000000 -0.1925180000000 1.0  -0.01
S      3 -0.0988700000000  0.2315630000000 -0.1925180000000 1.0  -0.01
Fe     4  0.1400650000000  0.0000000000000 -0.2092670000000 1.0   2.68
END
