TITL LFSO-Li4Fe2S2O3-200911-091759-525c67 0.0748 136.454400 -4.44916269E+003 7.07735 7.19662 11 (P-1) n - 1
REM
REM Run started: Fri, 11 Sep 2020 15:01:02 +0100 in /lustre/scratch/uccabz1/launch_tmp/launcher_2020-09-11-08-17-57-947968
REM CASTEP 20.1 from code version af48c487+ pr-geom-scf-spinfix Tue Jun 2 15:39:59 2020 +0100
REM Functional Perdew Burke Ernzerhof Relativity Koelling-Harmon Dispersion off
REM Cut-off 340.0000 eV Grid scale 1.7500 Gmax 16.5316 1/A FBSC none
REM MP grid 6 4 2 Offset 0.000 0.000 0.000 No. kpts 24 Spacing 0.07
REM Total runtime: 21043.2 s
REM Overall efficiency: 97.2 %
REM
REM
REM
REM compiler GCC version 4.9.2
REM options -cpp -iprefix /lustre/shared/ucl/apps/gcc/4.9.2/bin/../lib/gcc/x86_64-unknown-linux-gnu/4.9.2/ -mtune=corei7 -march=x86-64 -g -Og
REM COMMAND_LINE
REM seed -1237650717 27807179 73468724 -1010111294 1889323048 -1244512188 -1281927300 -1110680600 2040380245 28735391 -1041315568 -1275651800
REM
REM S 3|1.8|5|6|7|30:31:32(qc=5)
REM O 2|1.5|12|13|15|20:21(qc=5)
REM Li 1|1.3|8|9|10|10U:20(qc=5)
REM Fe 3|2.2|2.0|1.0|8|9|10|40:41:32(qc=5)
REM 
CELL 1.54180    3.82854    5.51666    9.46118   80.20159  103.22802  135.45162
LATT -1
SFAC Li O  S  Fe 
Li     1  0.0040790000000  0.2609810000000  0.0099300000000 1.0   0.03
Li     1 -0.0040790000000 -0.2609810000000 -0.0099300000000 1.0   0.03
Li     1  0.2459070000000  0.2891880000000  0.4094260000000 1.0  -0.05
Li     1 -0.2459070000000 -0.2891880000000 -0.4094260000000 1.0  -0.05
O      2 -0.2728310000000 -0.1993680000000  0.3517250000000 1.0   0.22
O      2  0.2728310000000  0.1993680000000 -0.3517250000000 1.0   0.22
O      2  0.0000000000000  0.5000000000000  0.5000000000000 1.0   0.28
S      3  0.4240090000000 -0.2484570000000 -0.1621150000000 1.0   0.15
S      3 -0.4240090000000  0.2484570000000  0.1621150000000 1.0   0.15
Fe     4 -0.1784080000000  0.2353010000000 -0.3272280000000 1.0   3.05
Fe     4  0.1784080000000 -0.2353010000000  0.3272280000000 1.0   3.05
END
