TITL LFSO-Li6FeS3O-200910-035147-e8e41a 0.0744 487.393235 -6.82385507E+003 7.88079 8.06545 22 (C2) n - 1
REM
REM Run started: Thu, 10 Sep 2020 16:55:22 +0100 in /lustre/scratch/uccabz1/launch_tmp/launcher_2020-09-10-14-57-01-564771
REM CASTEP 20.1 from code version af48c487+ pr-geom-scf-spinfix Tue Jun 2 15:39:59 2020 +0100
REM Functional Perdew Burke Ernzerhof Relativity Koelling-Harmon Dispersion off
REM Cut-off 340.0000 eV Grid scale 1.7500 Gmax 16.5316 1/A FBSC none
REM MP grid 3 2 2 Offset 0.000 0.000 0.000 No. kpts 5 Spacing 0.07
REM Total runtime: 45426.9 s
REM Overall efficiency: 75.3333 %
REM
REM
REM
REM compiler GCC version 4.9.2
REM options -cpp -iprefix /lustre/shared/ucl/apps/gcc/4.9.2/bin/../lib/gcc/x86_64-unknown-linux-gnu/4.9.2/ -mtune=corei7 -march=x86-64 -g -Og
REM COMMAND_LINE
REM seed 513288543 -829904139 31513790 -69814199 -175239345 1884113289 -490733694 -1459595757 1181948623 841645998 -1551600502 -868123262
REM
REM S 3|1.8|5|6|7|30:31:32(qc=5)
REM O 2|1.5|12|13|15|20:21(qc=5)
REM Li 1|1.3|8|9|10|10U:20(qc=5)
REM Fe 3|2.2|2.0|1.0|8|9|10|40:41:32(qc=5)
REM 
CELL 1.54180    9.39548   10.23233   10.23233   58.66843  135.24568  135.24568
LATT -1
SFAC Li O  S  Fe 
Li     1 -0.6822600000000  0.3583800000000  0.0815990000000 1.0  -0.01
Li     1  0.6822600000000 -0.0815990000000 -0.3583800000000 1.0  -0.01
Li     1  0.0067620000000  0.1141350000000  0.2402420000000 1.0  -0.03
Li     1 -0.0067620000000 -0.2402420000000 -0.1141350000000 1.0  -0.03
Li     1  0.1218950000000 -0.2526620000000 -0.3763770000000 1.0   0.04
Li     1 -0.1218950000000  0.3763770000000  0.2526620000000 1.0   0.04
Li     1  0.1758230000000  0.0513400000000  0.0343030000000 1.0   0.00
Li     1 -0.1758230000000 -0.0343030000000 -0.0513400000000 1.0   0.00
Li     1  0.3279740000000  0.0760540000000  0.3653190000000 1.0   0.00
Li     1 -0.3279740000000 -0.3653190000000 -0.0760540000000 1.0   0.00
Li     1  0.2533000000000  0.2280810000000 -0.2831620000000 1.0   0.02
Li     1 -0.2533000000000  0.2831620000000 -0.2280810000000 1.0   0.02
O      2  0.1182080000000  0.1253950000000  0.1417620000000 1.0   0.01
O      2 -0.1182080000000 -0.1417620000000 -0.1253950000000 1.0   0.01
S      3 -0.0695200000000  0.1313130000000 -0.5753280000000 1.0   0.15
S      3  0.0695200000000  0.5753280000000 -0.1313130000000 1.0   0.15
S      3  0.3085680000000  0.6617580000000  0.3480760000000 1.0   0.35
S      3 -0.3085680000000 -0.3480760000000 -0.6617580000000 1.0   0.35
S      3 -0.5044020000000  0.3316600000000  0.0045910000000 1.0   0.01
S      3  0.5044020000000 -0.0045910000000 -0.3316600000000 1.0   0.01
Fe     4 -0.3195410000000 -0.1784340000000  0.4048460000000 1.0   3.40
Fe     4  0.3195410000000 -0.4048460000000  0.1784340000000 1.0   3.40
END
