TITL LFSO-Li2Fe4S4O-200911-195713-ebded2 0.5150 311.667791 -1.10161172E+004 -0.130644E-01 0.190851 22 (Cc) n - 1
REM
REM Run started: Sun, 13 Sep 2020 22:39:16 +0100 in /lustre/scratch/uccabz1/launch_tmp/launcher_2020-09-12-06-22-13-571555
REM CASTEP 20.1 from code version af48c487+ pr-geom-scf-spinfix Tue Jun 2 15:39:59 2020 +0100
REM Functional Perdew Burke Ernzerhof Relativity Koelling-Harmon Dispersion off
REM Cut-off 340.0000 eV Grid scale 1.7500 Gmax 16.5316 1/A FBSC none
REM MP grid 3 2 3 Offset 0.000 0.000 0.000 No. kpts 9 Spacing 0.07
REM Total runtime: 200671 s
REM Overall efficiency: 96.9231 %
REM
REM
REM
REM compiler GCC version 4.9.2
REM options -cpp -iprefix /lustre/shared/ucl/apps/gcc/4.9.2/bin/../lib/gcc/x86_64-unknown-linux-gnu/4.9.2/ -mtune=corei7 -march=x86-64 -g -Og
REM COMMAND_LINE
REM seed -1927580433 345902906 -112387946 -973291082 -1369722998 502531888 694627161 1890913285 1681799419 1390823318 -1287274115 -1065159411
REM
REM S 3|1.8|5|6|7|30:31:32(qc=5)
REM O 2|1.5|12|13|15|20:21(qc=5)
REM Li 1|1.3|8|9|10|10U:20(qc=5)
REM Fe 3|2.2|2.0|1.0|8|9|10|40:41:32(qc=5)
REM 
CELL 1.54180    6.13804    9.30884    5.77942   88.67248   90.00000  109.24989
LATT -1
SFAC Li O  S  Fe 
Li     1  0.0471750000000 -0.1970480000000  0.5454630000000 1.0  -0.00
Li     1 -0.2442240000000 -0.1970480000000  0.0454630000000 1.0  -0.00
Li     1 -0.4172230000000  0.0525510000000 -0.3589720000000 1.0   0.00
Li     1 -0.5302270000000  0.0525510000000  0.1410280000000 1.0   0.00
O      2 -0.0503760000000 -0.2959110000000  0.2085890000000 1.0   0.00
O      2 -0.2455360000000 -0.2959110000000 -0.2914110000000 1.0   0.00
S      3  0.4831480000000 -0.1734120000000  0.3683000000000 1.0  -0.00
S      3  0.3434400000000 -0.1734120000000 -0.1317000000000 1.0  -0.00
S      3 -0.2163930000000  0.2985480000000  0.0032260000000 1.0  -0.00
S      3  0.5149400000000  0.2985480000000 -0.4967740000000 1.0  -0.00
S      3 -0.5838040000000 -0.4896080000000  0.0871360000000 1.0  -0.00
S      3  0.0941960000000 -0.4896080000000  0.5871360000000 1.0  -0.00
S      3 -0.0379850000000  0.1332300000000 -0.5292320000000 1.0   0.00
S      3  0.1712140000000  0.1332300000000 -0.0292320000000 1.0   0.00
Fe     4 -0.2238710000000  0.5164670000000  0.1164520000000 1.0   0.03
Fe     4 -0.2596640000000  0.5164670000000 -0.3835480000000 1.0   0.03
Fe     4 -0.5529880000000 -0.3329210000000 -0.3447280000000 1.0   0.01
Fe     4  0.2200660000000 -0.3329210000000  0.1552720000000 1.0   0.01
Fe     4  0.2380090000000  0.2855380000000  0.2597520000000 1.0  -0.00
Fe     4  0.0475280000000  0.2855380000000 -0.2402480000000 1.0  -0.00
Fe     4 -0.1324080000000  0.3342990000000  0.3788060000000 1.0  -0.02
Fe     4 -0.5332940000000  0.3342990000000 -0.1211940000000 1.0  -0.02
END
