TITL LFSO-LiFe3S4O-200909-110109-c76126 -0.0140 177.965054 -4.44461692E+003 3.26753 3.91475 9 (R3) n - 1
REM
REM Run started: Wed, 09 Sep 2020 14:27:04 +0100 in /lustre/scratch/uccabz1/launch_tmp/launcher_2020-09-09-10-01-07-571477
REM CASTEP 20.1 from code version af48c487+ pr-geom-scf-spinfix Tue Jun 2 15:39:59 2020 +0100
REM Functional Perdew Burke Ernzerhof Relativity Koelling-Harmon Dispersion off
REM Cut-off 340.0000 eV Grid scale 1.7500 Gmax 16.5316 1/A FBSC none
REM MP grid 4 4 4 Offset 0.000 0.000 0.000 No. kpts 12 Spacing 0.07
REM Total runtime: 12467.4 s
REM Overall efficiency: 95.1111 %
REM
REM
REM
REM compiler GCC version 4.9.2
REM options -cpp -iprefix /lustre/shared/ucl/apps/gcc/4.9.2/bin/../lib/gcc/x86_64-unknown-linux-gnu/4.9.2/ -mtune=corei7 -march=x86-64 -g -Og
REM COMMAND_LINE
REM seed 2106101063 -1676716984 278262502 -1070428155 1789085243 219097678 1319491850 1055993650 -1805996104 -1955101351 872399297 -1866449769
REM
REM S 3|1.8|5|6|7|30:31:32(qc=5)
REM O 2|1.5|12|13|15|20:21(qc=5)
REM Li 1|1.3|8|9|10|10U:20(qc=5)
REM Fe 3|2.2|2.0|1.0|8|9|10|40:41:32(qc=5)
REM 
CELL 1.54180    8.10716    8.10716    8.10716   37.60368   37.60368   37.60368
LATT -1
SFAC Li O  S  Fe 
Li     1 -0.0706390000000 -0.0706390000000 -0.0706390000000 1.0   0.03
O      2 -0.1498500000000 -0.1498500000000 -0.1498500000000 1.0   0.08
S      3  0.0918510000000 -0.2632460000000  0.4250080000000 1.0  -0.08
S      3  0.4250080000000  0.0918510000000 -0.2632460000000 1.0  -0.08
S      3 -0.2632460000000  0.4250080000000  0.0918510000000 1.0  -0.08
S      3  0.2167020000000  0.2167020000000  0.2167020000000 1.0   0.07
Fe     4  0.1338290000000  0.4569250000000 -0.1622050000000 1.0   1.10
Fe     4 -0.1622050000000  0.1338290000000  0.4569250000000 1.0   1.10
Fe     4  0.4569250000000 -0.1622050000000  0.1338290000000 1.0   1.10
END
