TITL LFSO-Li2FeSO-200912-023342-e27dfe 0.0294 165.382593 -3.99998673E+003 -1.29122 6.95523 10 (P3) n - 1
REM
REM Run started: Sat, 12 Sep 2020 08:30:43 +0100 in /lustre/scratch/uccabz1/launch_tmp/launcher_2020-09-12-05-26-58-070376
REM CASTEP 20.1 from code version af48c487+ pr-geom-scf-spinfix Tue Jun 2 15:39:59 2020 +0100
REM Functional Perdew Burke Ernzerhof Relativity Koelling-Harmon Dispersion off
REM Cut-off 340.0000 eV Grid scale 1.7500 Gmax 16.5316 1/A FBSC none
REM MP grid 5 5 2 Offset 0.000 0.000 0.000 No. kpts 9 Spacing 0.07
REM Total runtime: 18040.1 s
REM Overall efficiency: 95.7857 %
REM
REM
REM
REM compiler GCC version 4.9.2
REM options -cpp -iprefix /lustre/shared/ucl/apps/gcc/4.9.2/bin/../lib/gcc/x86_64-unknown-linux-gnu/4.9.2/ -mtune=corei7 -march=x86-64 -g -Og
REM COMMAND_LINE
REM seed -1321628994 -831837835 -110172454 39901331 -591005240 2060604183 -840335759 -432700707 88989870 1304135122 673465374 -1937448078
REM
REM S 3|1.8|5|6|7|30:31:32(qc=5)
REM O 2|1.5|12|13|15|20:21(qc=5)
REM Li 1|1.3|8|9|10|10U:20(qc=5)
REM Fe 3|2.2|2.0|1.0|8|9|10|40:41:32(qc=5)
REM 
CELL 1.54180    3.97639    3.97639   12.07763   90.00000   90.00000  120.00000
LATT -1
SFAC Li O  S  Fe 
Li     1 -0.0012510000000  0.3431330000000  0.0363270000000 1.0  -0.00
Li     1 -0.3431330000000 -0.3443860000000  0.0363270000000 1.0  -0.00
Li     1  0.3443860000000  0.0012510000000  0.0363270000000 1.0  -0.00
Li     1  0.3333340000000 -0.3333340000000 -0.2402070000000 1.0   0.06
O      2 -0.3333330000000  0.3333330000000  0.4680810000000 1.0   0.17
O      2  0.3333340000000 -0.3333340000000 -0.3905830000000 1.0  -0.23
S      3  0.0000000000000 -0.0000000000000  0.1743540000000 1.0   0.03
S      3  0.3333340000000 -0.3333340000000  0.3343250000000 1.0   0.07
Fe     4 -0.3333330000000  0.3333330000000  0.3204790000000 1.0   2.44
Fe     4  0.0000000000000 -0.0000000000000  0.5482490000000 1.0  -3.83
END
