TITL LFSO-Li6FeSO3-200909-215528-026a95 -0.0533 296.353956 -7.36303105E+003 8.00000 8.22819 22 (Cc) n - 1
REM
REM Run started: Thu, 10 Sep 2020 05:32:33 +0100 in /lustre/scratch/uccabz1/launch_tmp/launcher_2020-09-09-20-55-26-579370
REM CASTEP 20.1 from code version af48c487+ pr-geom-scf-spinfix Tue Jun 2 15:39:59 2020 +0100
REM Functional Perdew Burke Ernzerhof Relativity Koelling-Harmon Dispersion off
REM Cut-off 340.0000 eV Grid scale 1.7500 Gmax 16.5316 1/A FBSC none
REM MP grid 2 3 3 Offset 0.000 0.000 0.000 No. kpts 6 Spacing 0.07
REM Total runtime: 31391.7 s
REM Overall efficiency: 76.5 %
REM
REM
REM
REM compiler GCC version 4.9.2
REM options -cpp -iprefix /lustre/shared/ucl/apps/gcc/4.9.2/bin/../lib/gcc/x86_64-unknown-linux-gnu/4.9.2/ -mtune=corei7 -march=x86-64 -g -Og
REM COMMAND_LINE
REM seed 1754847501 1473748049 438963126 1018317266 1904426995 2109314169 -414386555 -453535927 1139069494 -1034689466 1257224721 -41532668
REM
REM S 3|1.8|5|6|7|30:31:32(qc=5)
REM O 2|1.5|12|13|15|20:21(qc=5)
REM Li 1|1.3|8|9|10|10U:20(qc=5)
REM Fe 3|2.2|2.0|1.0|8|9|10|40:41:32(qc=5)
REM 
CELL 1.54180    5.74708    8.95282    8.95282  137.17774   96.76698   96.76698
LATT -1
SFAC Li O  S  Fe 
Li     1 -0.3583310000000 -0.3524780000000  0.3611510000000 1.0  -0.04
Li     1  0.1416690000000  0.3611510000000 -0.3524780000000 1.0  -0.04
Li     1 -0.0290280000000  0.0117470000000 -0.3282190000000 1.0   0.01
Li     1  0.4709720000000 -0.3282190000000  0.0117470000000 1.0   0.01
Li     1 -0.1489710000000  0.0697790000000  0.1242650000000 1.0  -0.02
Li     1  0.3510290000000  0.1242650000000  0.0697790000000 1.0  -0.02
Li     1  0.3236790000000 -0.1807840000000 -0.5089180000000 1.0  -0.01
Li     1 -0.1763210000000 -0.5089180000000 -0.1807840000000 1.0  -0.01
Li     1  0.1304980000000  0.4694410000000  0.1366300000000 1.0  -0.00
Li     1 -0.3695020000000  0.1366300000000  0.4694410000000 1.0  -0.00
Li     1 -0.2987690000000  0.2430540000000 -0.1456920000000 1.0   0.05
Li     1  0.2012310000000 -0.1456920000000  0.2430540000000 1.0   0.05
O      2 -0.1367010000000  0.2882970000000 -0.5662610000000 1.0   0.24
O      2  0.3632990000000 -0.5662610000000  0.2882970000000 1.0   0.24
O      2 -0.0135780000000 -0.3058380000000  0.4297780000000 1.0   0.12
O      2  0.4864220000000  0.4297780000000 -0.3058380000000 1.0   0.12
O      2 -0.5239350000000 -0.1775060000000  0.3131600000000 1.0   0.01
O      2 -0.0239350000000  0.3131600000000 -0.1775060000000 1.0   0.01
S      3  0.0992650000000 -0.1880830000000 -0.0416720000000 1.0   0.09
S      3 -0.4007350000000 -0.0416720000000 -0.1880830000000 1.0   0.09
Fe     4  0.4591440000000 -0.4727580000000  0.5580320000000 1.0   3.55
Fe     4 -0.0408560000000  0.5580320000000 -0.4727580000000 1.0   3.55
END
