TITL LFSO-LiFe3S4O-200909-090828-868288 0.1288 174.650980 -4.44390010E+003 8.65437 8.91077 9 (P-1) n - 1
REM
REM Run started: Wed, 09 Sep 2020 14:52:08 +0100 in /lustre/scratch/uccabz1/launch_tmp/launcher_2020-09-09-08-08-26-923363
REM CASTEP 20.1 from code version af48c487+ pr-geom-scf-spinfix Tue Jun 2 15:39:59 2020 +0100
REM Functional Perdew Burke Ernzerhof Relativity Koelling-Harmon Dispersion off
REM Cut-off 340.0000 eV Grid scale 1.7500 Gmax 16.5316 1/A FBSC none
REM MP grid 5 3 2 Offset 0.000 0.000 0.000 No. kpts 15 Spacing 0.07
REM Total runtime: 22625 s
REM Overall efficiency: 97.4167 %
REM
REM
REM
REM compiler GCC version 4.9.2
REM options -cpp -iprefix /lustre/shared/ucl/apps/gcc/4.9.2/bin/../lib/gcc/x86_64-unknown-linux-gnu/4.9.2/ -mtune=corei7 -march=x86-64 -g -Og
REM COMMAND_LINE
REM seed 1637908008 -652123171 1477095930 2055896010 1747227763 -1303558168 1086222612 1256741123 -781464880 906684398 1970462524 -780893623
REM
REM S 3|1.8|5|6|7|30:31:32(qc=5)
REM O 2|1.5|12|13|15|20:21(qc=5)
REM Li 1|1.3|8|9|10|10U:20(qc=5)
REM Fe 3|2.2|2.0|1.0|8|9|10|40:41:32(qc=5)
REM 
CELL 1.54180    3.00098    7.66498    8.53323   62.90397   91.24935   89.35928
LATT -1
SFAC Li O  S  Fe 
Li     1  0.0000000000000  0.5000000000000  0.5000000000000 1.0   0.04
O      2  0.5000000000000  0.5000000000000  0.0000000000000 1.0   0.30
S      3  0.4579210000000 -0.3057820000000 -0.3798040000000 1.0   0.09
S      3 -0.4579210000000  0.3057820000000  0.3798040000000 1.0   0.09
S      3  0.0133470000000 -0.2262770000000  0.1632930000000 1.0   0.13
S      3 -0.0133470000000  0.2262770000000 -0.1632930000000 1.0   0.13
Fe     4 -0.0283480000000  0.5376080000000 -0.1683270000000 1.0   2.63
Fe     4  0.0283480000000 -0.5376080000000  0.1683270000000 1.0   2.63
Fe     4  0.5000000000000  0.0000000000000  0.0000000000000 1.0   2.61
END
