TITL LFSO-Li2Fe2SO3-200913-111528-72780d -0.0227 133.677803 -3.74458477E+003 9.31332 9.31801 8 (R32) n - 1
REM
REM Run started: Sun, 13 Sep 2020 12:19:48 +0100 in /lustre/scratch/uccabz1/launch_tmp/launcher_2020-09-13-10-15-27-334976
REM CASTEP 20.1 from code version af48c487+ pr-geom-scf-spinfix Tue Jun 2 15:39:59 2020 +0100
REM Functional Perdew Burke Ernzerhof Relativity Koelling-Harmon Dispersion off
REM Cut-off 340.0000 eV Grid scale 1.7500 Gmax 16.5316 1/A FBSC none
REM MP grid 4 4 3 Offset 0.000 0.000 0.000 No. kpts 24 Spacing 0.07
REM Total runtime: 4399.1 s
REM Overall efficiency: 95.8333 %
REM
REM
REM
REM compiler GCC version 4.9.2
REM options -cpp -iprefix /lustre/shared/ucl/apps/gcc/4.9.2/bin/../lib/gcc/x86_64-unknown-linux-gnu/4.9.2/ -mtune=corei7 -march=x86-64 -g -Og
REM COMMAND_LINE
REM seed -1883675227 -82836366 -1372579765 1491626101 1681843738 1935678604 1843107896 -61610787 -241782966 357454148 -1339586751 -1960260537
REM
REM S 3|1.8|5|6|7|30:31:32(qc=5)
REM O 2|1.5|12|13|15|20:21(qc=5)
REM Li 1|1.3|8|9|10|10U:20(qc=5)
REM Fe 3|2.2|2.0|1.0|8|9|10|40:41:32(qc=5)
REM 
CELL 1.54180    5.22575    5.22575    6.40720   65.93313   65.93313   60.00000
LATT -1
SFAC Li O  S  Fe 
Li     1  0.4123760000000  0.4123760000000 -0.2371290000000 1.0   0.00
Li     1  0.2770840000000  0.2770840000000  0.1687480000000 1.0   0.00
O      2  0.3436590000000 -0.3442140000000 -0.0314980000000 1.0   0.43
O      2  0.0320540000000  0.3436590000000 -0.0314980000000 1.0   0.43
O      2 -0.3442140000000  0.0320540000000 -0.0314980000000 1.0   0.43
S      3 -0.1563280000000 -0.1563280000000 -0.5310170000000 1.0   0.44
Fe     4 -0.0230230000000 -0.0230230000000  0.0690690000000 1.0   3.79
Fe     4 -0.2896340000000 -0.2896340000000 -0.1310970000000 1.0   3.79
END
