TITL LFSO-LiFe3S4O-200909-102001-200f6d -0.0555 267.638308 -8.88517941E+003 7.72379 11.5338 18 (P3) n - 1
REM
REM Run started: Wed, 09 Sep 2020 16:02:35 +0100 in /lustre/scratch/uccabz1/launch_tmp/launcher_2020-09-09-12-19-42-402519
REM CASTEP 20.1 from code version af48c487+ pr-geom-scf-spinfix Tue Jun 2 15:39:59 2020 +0100
REM Functional Perdew Burke Ernzerhof Relativity Koelling-Harmon Dispersion off
REM Cut-off 340.0000 eV Grid scale 1.7500 Gmax 16.5316 1/A FBSC none
REM MP grid 3 3 2 Offset 0.000 0.000 0.000 No. kpts 5 Spacing 0.07
REM Total runtime: 14610.1 s
REM Overall efficiency: 81.4615 %
REM
REM
REM
REM compiler GCC version 4.9.2
REM options -cpp -iprefix /lustre/shared/ucl/apps/gcc/4.9.2/bin/../lib/gcc/x86_64-unknown-linux-gnu/4.9.2/ -mtune=corei7 -march=x86-64 -g -Og
REM COMMAND_LINE
REM seed -1533606889 -900463907 -558569193 -818339159 -287168552 -1849056324 -239898615 -119888656 1871185151 1974764979 338637607 -1349911134
REM
REM S 3|1.8|5|6|7|30:31:32(qc=5)
REM O 2|1.5|12|13|15|20:21(qc=5)
REM Li 1|1.3|8|9|10|10U:20(qc=5)
REM Fe 3|2.2|2.0|1.0|8|9|10|40:41:32(qc=5)
REM 
CELL 1.54180    5.68878    5.68878    9.54947   90.00000   90.00000  120.00000
LATT -1
SFAC Li O  S  Fe 
Li     1 -0.0000000000000  0.0000000000000 -0.1892930000000 1.0   0.06
Li     1  0.0000000000000  0.0000000000000 -0.4699870000000 1.0  -0.15
O      2 -0.3333330000000  0.3333330000000  0.2843160000000 1.0   0.27
O      2  0.3333330000000 -0.3333330000000 -0.3351330000000 1.0  -0.03
S      3  0.3865720000000  0.3643340000000 -0.3654100000000 1.0   0.02
S      3 -0.3643340000000  0.0222380000000 -0.3654100000000 1.0   0.02
S      3 -0.0222380000000 -0.3865720000000 -0.3654100000000 1.0   0.02
S      3  0.3551820000000  0.0034130000000 -0.0156880000000 1.0   0.05
S      3 -0.0034130000000  0.3517690000000 -0.0156880000000 1.0   0.05
S      3 -0.3517690000000 -0.3551820000000 -0.0156880000000 1.0   0.05
S      3 -0.0000000000000  0.0000000000000  0.2713920000000 1.0   0.00
S      3  0.3333330000000 -0.3333330000000  0.2534860000000 1.0   0.05
Fe     4  0.4313040000000  0.3989780000000  0.4053310000000 1.0   2.95
Fe     4 -0.3989780000000  0.0323260000000  0.4053310000000 1.0   2.95
Fe     4 -0.0323260000000 -0.4313040000000  0.4053310000000 1.0   2.95
Fe     4 -0.2989780000000 -0.0043780000000  0.1013890000000 1.0  -0.52
Fe     4  0.0043780000000 -0.2946000000000  0.1013890000000 1.0  -0.52
Fe     4  0.2946000000000  0.2989780000000  0.1013890000000 1.0  -0.52
END
