TITL LFSO-Li5FeS3O-200910-112653-0bd61f 0.0952 391.381374 -6.42540995E+003 7.20516 7.51056 20 (Pc) n - 1
REM
REM Run started: Thu, 10 Sep 2020 23:04:26 +0100 in /lustre/scratch/uccabz1/launch_tmp/launcher_2020-09-10-10-26-51-718858
REM CASTEP 20.1 from code version af48c487+ pr-geom-scf-spinfix Tue Jun 2 15:39:59 2020 +0100
REM Functional Perdew Burke Ernzerhof Relativity Koelling-Harmon Dispersion off
REM Cut-off 340.0000 eV Grid scale 1.7500 Gmax 16.5316 1/A FBSC none
REM MP grid 3 3 2 Offset 0.000 0.000 0.000 No. kpts 5 Spacing 0.07
REM Total runtime: 47360.1 s
REM Overall efficiency: 76.9167 %
REM
REM
REM
REM compiler GCC version 4.9.2
REM options -cpp -iprefix /lustre/shared/ucl/apps/gcc/4.9.2/bin/../lib/gcc/x86_64-unknown-linux-gnu/4.9.2/ -mtune=corei7 -march=x86-64 -g -Og
REM COMMAND_LINE
REM seed 2124086223 -990615242 -194569802 1884783014 1179438576 -1843492090 -982519716 135356362 -6587560 -143913121 675662226 -535631773
REM
REM S 3|1.8|5|6|7|30:31:32(qc=5)
REM O 2|1.5|12|13|15|20:21(qc=5)
REM Li 1|1.3|8|9|10|10U:20(qc=5)
REM Fe 3|2.2|2.0|1.0|8|9|10|40:41:32(qc=5)
REM 
CELL 1.54180    6.91415    7.33595    9.63853   90.00000   90.00000  126.81635
LATT -1
SFAC Li O  S  Fe 
Li     1 -0.5755090000000 -0.3268420000000 -0.0003270000000 1.0   0.03
Li     1 -0.0755090000000 -0.3268420000000  0.0003270000000 1.0   0.03
Li     1  0.4228970000000 -0.2330480000000 -0.3329650000000 1.0  -0.01
Li     1 -0.0771030000000 -0.2330480000000  0.3329650000000 1.0  -0.01
Li     1  0.2465030000000 -0.1305610000000 -0.4907960000000 1.0   0.03
Li     1 -0.2534970000000 -0.1305610000000  0.4907960000000 1.0   0.03
Li     1  0.0589880000000 -0.0265890000000 -0.3294560000000 1.0   0.02
Li     1 -0.4410120000000 -0.0265890000000  0.3294560000000 1.0   0.02
Li     1 -0.2003480000000 -0.4656320000000 -0.3749140000000 1.0  -0.01
Li     1  0.2996520000000 -0.4656320000000  0.3749140000000 1.0  -0.01
O      2  0.4405490000000 -0.2189820000000  0.4772900000000 1.0   0.01
O      2 -0.0594510000000 -0.2189820000000 -0.4772900000000 1.0   0.01
S      3 -0.0154980000000  0.1606960000000  0.3040280000000 1.0   0.20
S      3 -0.5154980000000  0.1606960000000 -0.3040280000000 1.0   0.20
S      3  0.0753400000000  0.5596840000000 -0.1741440000000 1.0   0.13
S      3 -0.4246600000000  0.5596840000000  0.1741440000000 1.0   0.13
S      3 -0.2446390000000 -0.1057540000000 -0.1637610000000 1.0   0.13
S      3  0.2553610000000 -0.1057540000000  0.1637610000000 1.0   0.13
Fe     4  0.2796280000000  0.2015360000000  0.1945460000000 1.0   3.07
Fe     4  0.7796280000000  0.2015360000000 -0.1945460000000 1.0   3.07
END
