TITL LFSO-Li5FeSO3-200910-062403-8f50f8 0.0134 330.069472 -6.95529256E+003 -1.19472 7.82744 20 (R3) n - 1
REM
REM Run started: Thu, 10 Sep 2020 13:49:23 +0100 in /lustre/scratch/uccabz1/launch_tmp/launcher_2020-09-10-05-24-01-043494
REM CASTEP 20.1 from code version af48c487+ pr-geom-scf-spinfix Tue Jun 2 15:39:59 2020 +0100
REM Functional Perdew Burke Ernzerhof Relativity Koelling-Harmon Dispersion off
REM Cut-off 340.0000 eV Grid scale 1.7500 Gmax 16.5316 1/A FBSC none
REM MP grid 3 3 3 Offset 0.000 0.000 0.000 No. kpts 6 Spacing 0.07
REM Total runtime: 27075.9 s
REM Overall efficiency: 97.7143 %
REM
REM
REM
REM compiler GCC version 4.9.2
REM options -cpp -iprefix /lustre/shared/ucl/apps/gcc/4.9.2/bin/../lib/gcc/x86_64-unknown-linux-gnu/4.9.2/ -mtune=corei7 -march=x86-64 -g -Og
REM COMMAND_LINE
REM seed -1616355096 1341619766 -1952237899 937773204 -957025602 1314820521 636298759 -1945155810 -1505267496 206463341 -2052712034 -1991594936
REM
REM S 3|1.8|5|6|7|30:31:32(qc=5)
REM O 2|1.5|12|13|15|20:21(qc=5)
REM Li 1|1.3|8|9|10|10U:20(qc=5)
REM Fe 3|2.2|2.0|1.0|8|9|10|40:41:32(qc=5)
REM 
CELL 1.54180    7.37451    7.37451    7.37451   67.70150   67.70150   67.70150
LATT -1
SFAC Li O  S  Fe 
Li     1  0.4475500000000 -0.0078980000000  0.4471750000000 1.0   0.04
Li     1 -0.0078980000000  0.4471750000000  0.4475500000000 1.0   0.04
Li     1  0.4471750000000  0.4475500000000 -0.0078980000000 1.0   0.04
Li     1  0.1797840000000 -0.1866690000000  0.4098240000000 1.0   0.01
Li     1 -0.1866690000000  0.4098240000000  0.1797840000000 1.0   0.01
Li     1  0.4098240000000  0.1797840000000 -0.1866690000000 1.0   0.01
Li     1  0.1276430000000 -0.4761240000000 -0.2495250000000 1.0   0.05
Li     1 -0.4761240000000 -0.2495250000000  0.1276430000000 1.0   0.05
Li     1 -0.2495250000000  0.1276430000000 -0.4761240000000 1.0   0.05
Li     1  0.0385220000000  0.0385220000000  0.0385220000000 1.0  -0.34
O      2 -0.2492410000000 -0.6044980000000  0.4498660000000 1.0   0.14
O      2 -0.6044980000000  0.4498660000000 -0.2492410000000 1.0   0.14
O      2  0.4498660000000 -0.2492410000000 -0.6044980000000 1.0   0.14
O      2 -0.4572400000000  0.4813590000000  0.1840510000000 1.0   0.09
O      2  0.4813590000000  0.1840510000000 -0.4572400000000 1.0   0.09
O      2  0.1840510000000 -0.4572400000000  0.4813590000000 1.0   0.09
S      3 -0.2394590000000 -0.2394590000000 -0.2394590000000 1.0  -0.30
S      3  0.1653880000000  0.1653880000000  0.1653880000000 1.0   0.02
Fe     4 -0.1169530000000 -0.1169530000000 -0.1169530000000 1.0  -3.94
Fe     4  0.4682040000000  0.4682040000000  0.4682040000000 1.0   2.37
END
