TITL LFSO-Li2Fe4S3O2-200912-043724-db6401 -0.0559 147.833241 -5.63827201E+003 -0.567868 1.33663 11 (F222) n - 1
REM
REM Run started: Sat, 12 Sep 2020 07:30:49 +0100 in /lustre/scratch/uccabz1/launch_tmp/launcher_2020-09-12-03-37-21-635938
REM CASTEP 20.1 from code version af48c487+ pr-geom-scf-spinfix Tue Jun 2 15:39:59 2020 +0100
REM Functional Perdew Burke Ernzerhof Relativity Koelling-Harmon Dispersion off
REM Cut-off 340.0000 eV Grid scale 1.7500 Gmax 16.5316 1/A FBSC none
REM MP grid 4 4 4 Offset 0.000 0.000 0.000 No. kpts 15 Spacing 0.07
REM Total runtime: 12750.8 s
REM Overall efficiency: 96.25 %
REM
REM
REM
REM compiler GCC version 4.9.2
REM options -cpp -iprefix /lustre/shared/ucl/apps/gcc/4.9.2/bin/../lib/gcc/x86_64-unknown-linux-gnu/4.9.2/ -mtune=corei7 -march=x86-64 -g -Og
REM COMMAND_LINE
REM seed 15082057 -1862188632 1343946819 1718699567 1157868723 -1480126783 384628076 625730354 1490128113 1060130049 1150462634 -1101323761
REM
REM S 3|1.8|5|6|7|30:31:32(qc=5)
REM O 2|1.5|12|13|15|20:21(qc=5)
REM Li 1|1.3|8|9|10|10U:20(qc=5)
REM Fe 3|2.2|2.0|1.0|8|9|10|40:41:32(qc=5)
REM 
CELL 1.54180    6.85845    6.85845    4.97416  107.31836  107.31836  124.62535
LATT -1
SFAC Li O  S  Fe 
Li     1 -0.1638340000000 -0.1638340000000 -0.3276680000000 1.0   0.01
Li     1  0.1638340000000  0.1638340000000  0.3276680000000 1.0   0.01
O      2 -0.2390720000000 -0.2390720000000 -0.0000000000000 1.0  -0.01
O      2  0.2390720000000  0.2390720000000 -0.0000000000000 1.0  -0.01
S      3 -0.3343000000000 -0.6657000000000 -0.5000000000000 1.0   0.02
S      3 -0.1657000000000  0.1657000000000  0.5000000000000 1.0   0.02
S      3  0.2500000000000 -0.2500000000000 -0.5000000000000 1.0  -0.01
Fe     4  0.1996690000000  0.4949800000000  1.0377010000000 1.0  -0.15
Fe     4 -0.5427210000000 -0.8380320000000 -1.0377010000000 1.0  -0.15
Fe     4  0.5050200000000  0.8003310000000  0.9622990000000 1.0  -0.15
Fe     4 -0.1619680000000 -0.4572790000000 -0.9622990000000 1.0  -0.15
END
