TITL LFSO-Li2Fe2SO2-200913-002312-2e948f -0.0194 208.862922 -6.61222701E+003 15.6139 15.8316 14 (C2221) n - 1
REM
REM Run started: Sun, 13 Sep 2020 01:46:34 +0100 in /lustre/scratch/uccabz1/launch_tmp/launcher_2020-09-12-23-23-10-478458
REM CASTEP 20.1 from code version af48c487+ pr-geom-scf-spinfix Tue Jun 2 15:39:59 2020 +0100
REM Functional Perdew Burke Ernzerhof Relativity Koelling-Harmon Dispersion off
REM Cut-off 340.0000 eV Grid scale 1.7500 Gmax 16.5316 1/A FBSC none
REM MP grid 4 4 2 Offset 0.000 0.000 0.000 No. kpts 6 Spacing 0.07
REM Total runtime: 5055.85 s
REM Overall efficiency: 93.8571 %
REM
REM
REM
REM compiler GCC version 4.9.2
REM options -cpp -iprefix /lustre/shared/ucl/apps/gcc/4.9.2/bin/../lib/gcc/x86_64-unknown-linux-gnu/4.9.2/ -mtune=corei7 -march=x86-64 -g -Og
REM COMMAND_LINE
REM seed 1667942821 -893169510 680946514 -610704223 -510058356 1086187777 706375611 4621388 406882099 -750946663 1100921043 -206645883
REM
REM S 3|1.8|5|6|7|30:31:32(qc=5)
REM O 2|1.5|12|13|15|20:21(qc=5)
REM Li 1|1.3|8|9|10|10U:20(qc=5)
REM Fe 3|2.2|2.0|1.0|8|9|10|40:41:32(qc=5)
REM 
CELL 1.54180    4.61801    4.61801    9.89260   90.00000   90.00000   81.89509
LATT -1
SFAC Li O  S  Fe 
Li     1 -0.2210820000000  0.4002510000000  0.2325160000000 1.0  -0.04
Li     1  0.2210820000000 -0.4002510000000 -0.2674840000000 1.0  -0.04
Li     1  0.4002510000000 -0.2210820000000  0.2674840000000 1.0  -0.04
Li     1 -0.4002510000000  0.2210820000000 -0.2325160000000 1.0  -0.04
O      2 -0.3128600000000 -0.2471890000000  0.4081960000000 1.0   0.32
O      2  0.3128600000000  0.2471890000000 -0.0918040000000 1.0   0.32
O      2 -0.2471890000000 -0.3128600000000  0.0918040000000 1.0   0.32
O      2  0.2471890000000  0.3128600000000 -0.4081960000000 1.0   0.32
S      3  0.2860530000000  0.2860530000000  0.2500000000000 1.0   0.25
S      3 -0.2860530000000 -0.2860530000000 -0.2500000000000 1.0   0.25
Fe     4 -0.1168770000000  0.4818840000000  0.5267510000000 1.0   3.51
Fe     4  0.1168770000000 -0.4818840000000  0.0267510000000 1.0   3.51
Fe     4  0.4818840000000 -0.1168770000000 -0.0267510000000 1.0   3.51
Fe     4 -0.4818840000000  0.1168770000000 -0.5267510000000 1.0   3.51
END
