TITL LFSO-Li2Fe3S2O2-200921-013701-904525 0.0045 153.144217 -4.47401813E+003 -9.12656 9.35608 9 (C2) n - 1
REM
REM Run started: Mon, 21 Sep 2020 05:44:02 +0100 in /lustre/scratch/uccabz1/launch_tmp/launcher_2020-09-21-00-37-00-283739
REM CASTEP 20.1 from code version af48c487+ pr-geom-scf-spinfix Tue Jun 2 15:39:59 2020 +0100
REM Functional Perdew Burke Ernzerhof Relativity Koelling-Harmon Dispersion off
REM Cut-off 340.0000 eV Grid scale 1.7500 Gmax 16.5316 1/A FBSC none
REM MP grid 4 4 4 Offset 0.000 0.000 0.000 No. kpts 22 Spacing 0.07
REM Total runtime: 14916.3 s
REM Overall efficiency: 96.2222 %
REM
REM
REM
REM compiler GCC version 4.9.2
REM options -cpp -iprefix /lustre/shared/ucl/apps/gcc/4.9.2/bin/../lib/gcc/x86_64-unknown-linux-gnu/4.9.2/ -mtune=corei7 -march=x86-64 -g -Og
REM COMMAND_LINE
REM seed -1535962831 -1865382631 -763056984 -414485623 1680630792 1625277810 -1668928526 -537735002 186639736 307781514 -1774067714 -1025896377
REM
REM S 3|1.8|5|6|7|30:31:32(qc=5)
REM O 2|1.5|12|13|15|20:21(qc=5)
REM Li 1|1.3|8|9|10|10U:20(qc=5)
REM Fe 3|2.2|2.0|1.0|8|9|10|40:41:32(qc=5)
REM 
CELL 1.54180    7.02876    7.02876    5.14121   92.74885  116.97431  129.28217
LATT -1
SFAC Li O  S  Fe 
Li     1  0.3489960000000 -0.2728900000000 -0.0237400000000 1.0   0.04
Li     1 -0.2491500000000 -0.6272640000000  0.0237400000000 1.0   0.04
O      2  0.0154520000000  0.4006170000000 -0.0398210000000 1.0  -0.20
O      2  0.4404380000000  0.0552730000000  0.0398210000000 1.0  -0.20
S      3 -0.0793450000000  0.0780090000000  0.4303340000000 1.0  -0.11
S      3 -0.3523250000000 -0.5096790000000 -0.4303340000000 1.0  -0.11
Fe     4  0.1466420000000  0.2560370000000  0.1805370000000 1.0  -2.99
Fe     4  0.0755000000000 -0.0338950000000 -0.1805370000000 1.0  -2.99
Fe     4 -0.2700980000000  0.2299020000000  0.5000000000000 1.0  -2.60
END
