TITL LFSO-Li2Fe3S3O-200912-210910-0ca486 0.0108 140.040062 -4.33927695E+003 0.174998E-01 0.217763E-01 9 (Fmm2) n - 1
REM
REM Run started: Sun, 13 Sep 2020 00:25:19 +0100 in /lustre/scratch/uccabz1/launch_tmp/launcher_2020-09-12-20-09-08-365808
REM CASTEP 20.1 from code version af48c487+ pr-geom-scf-spinfix Tue Jun 2 15:39:59 2020 +0100
REM Functional Perdew Burke Ernzerhof Relativity Koelling-Harmon Dispersion off
REM Cut-off 340.0000 eV Grid scale 1.7500 Gmax 16.5316 1/A FBSC none
REM MP grid 4 4 4 Offset 0.000 0.000 0.000 No. kpts 15 Spacing 0.07
REM Total runtime: 11837.9 s
REM Overall efficiency: 95.25 %
REM
REM
REM
REM compiler GCC version 4.9.2
REM options -cpp -iprefix /lustre/shared/ucl/apps/gcc/4.9.2/bin/../lib/gcc/x86_64-unknown-linux-gnu/4.9.2/ -mtune=corei7 -march=x86-64 -g -Og
REM COMMAND_LINE
REM seed 1910151571 718019818 -1616009866 786224113 2094230241 347399528 127475385 -1252934517 -1945124500 1855207990 622240329 -859070787
REM
REM S 3|1.8|5|6|7|30:31:32(qc=5)
REM O 2|1.5|12|13|15|20:21(qc=5)
REM Li 1|1.3|8|9|10|10U:20(qc=5)
REM Fe 3|2.2|2.0|1.0|8|9|10|40:41:32(qc=5)
REM 
CELL 1.54180    6.11525    6.11525    5.30480  106.28862  106.28862  120.88993
LATT -1
SFAC Li O  S  Fe 
Li     1  0.0119620000000 -0.5550740000000 -0.5431130000000 1.0   0.00
Li     1 -0.5550740000000  0.0119620000000 -0.5431130000000 1.0   0.00
O      2 -0.1298520000000 -0.1298520000000 -0.2597040000000 1.0   0.00
S      3 -0.3545620000000  0.3455000000000 -0.0090620000000 1.0   0.00
S      3  0.3455000000000 -0.3545620000000 -0.0090620000000 1.0   0.00
S      3  0.1828070000000  0.1828070000000  0.3656150000000 1.0  -0.00
Fe     4  0.1829960000000  0.1829960000000 -0.2236960000000 1.0   0.01
Fe     4 -0.4066920000000 -0.4066920000000 -0.2236960000000 1.0   0.01
Fe     4 -0.3358950000000  0.6641050000000  0.3282100000000 1.0  -0.00
END
