TITL LFSO-Li2Fe3S3O-200912-163315-dc348f 0.0662 294.712385 -8.67632923E+003 1.58595 2.74092 18 (Iba2) n - 1
REM
REM Run started: Sun, 13 Sep 2020 06:25:09 +0100 in /lustre/scratch/uccabz1/launch_tmp/launcher_2020-09-12-15-33-13-277694
REM CASTEP 20.1 from code version af48c487+ pr-geom-scf-spinfix Tue Jun 2 15:39:59 2020 +0100
REM Functional Perdew Burke Ernzerhof Relativity Koelling-Harmon Dispersion off
REM Cut-off 340.0000 eV Grid scale 1.7500 Gmax 16.5316 1/A FBSC none
REM MP grid 5 2 2 Offset 0.000 0.000 0.000 No. kpts 8 Spacing 0.07
REM Total runtime: 56814.9 s
REM Overall efficiency: 97.6154 %
REM
REM
REM
REM compiler GCC version 4.9.2
REM options -cpp -iprefix /lustre/shared/ucl/apps/gcc/4.9.2/bin/../lib/gcc/x86_64-unknown-linux-gnu/4.9.2/ -mtune=corei7 -march=x86-64 -g -Og
REM COMMAND_LINE
REM seed -794627909 -764721568 470442394 2004175591 1228183116 420315071 725146404 -1850661993 45702106 -990462832 -483572059 -1975356836
REM
REM S 3|1.8|5|6|7|30:31:32(qc=5)
REM O 2|1.5|12|13|15|20:21(qc=5)
REM Li 1|1.3|8|9|10|10U:20(qc=5)
REM Fe 3|2.2|2.0|1.0|8|9|10|40:41:32(qc=5)
REM 
CELL 1.54180    3.39308    9.61489    9.61489   74.47215   79.83698   79.83698
LATT -1
SFAC Li O  S  Fe 
Li     1  0.4856410000000 -0.1271050000000  0.1113010000000 1.0   0.00
Li     1 -0.4698370000000  0.1113010000000 -0.1271050000000 1.0   0.00
Li     1 -0.0143590000000 -0.3886990000000  0.3728950000000 1.0   0.00
Li     1  0.0301630000000  0.3728950000000 -0.3886990000000 1.0   0.00
O      2 -0.4064450000000 -0.0935550000000 -0.0935550000000 1.0  -0.04
O      2  0.0935550000000  0.4064450000000  0.4064450000000 1.0  -0.04
S      3 -0.2702470000000 -0.5988150000000  0.1306170000000 1.0   0.05
S      3 -0.2615550000000  0.1306170000000 -0.5988150000000 1.0   0.05
S      3  0.2297530000000 -0.3693830000000 -0.0988150000000 1.0   0.05
S      3  0.2384450000000 -0.0988150000000 -0.3693830000000 1.0   0.05
S      3  0.3774780000000  0.1225220000000  0.1225220000000 1.0  -0.03
S      3 -0.1225220000000 -0.3774780000000 -0.3774780000000 1.0  -0.03
Fe     4 -0.1788550000000 -0.1511600000000  0.5174550000000 1.0   0.43
Fe     4 -0.1874410000000  0.5174550000000 -0.1511600000000 1.0   0.43
Fe     4 -0.6788550000000  0.0174550000000  0.3488400000000 1.0   0.43
Fe     4  0.3125590000000  0.3488400000000  0.0174550000000 1.0   0.43
Fe     4  0.1400570000000 -0.1400570000000 -0.1400570000000 1.0  -0.10
Fe     4 -0.3599430000000  0.3599430000000  0.3599430000000 1.0  -0.10
END
