TITL LFSO-LiFeSO-200909-062222-eff132 0.0345 397.040150 -1.08296911E+004 -14.7822 15.9993 24 (Cc) n - 1
REM
REM Run started: Thu, 10 Sep 2020 16:06:11 +0100 in /lustre/scratch/uccabz1/launch_tmp/launcher_2020-09-09-12-20-23-990638
REM CASTEP 20.1 from code version af48c487+ pr-geom-scf-spinfix Tue Jun 2 15:39:59 2020 +0100
REM Functional Perdew Burke Ernzerhof Relativity Koelling-Harmon Dispersion off
REM Cut-off 340.0000 eV Grid scale 1.7500 Gmax 16.5316 1/A FBSC none
REM MP grid 4 2 2 Offset 0.000 0.000 0.000 No. kpts 6 Spacing 0.07
REM Total runtime: 107568 s
REM Overall efficiency: 81.4615 %
REM
REM
REM
REM compiler GCC version 4.9.2
REM options -cpp -iprefix /lustre/shared/ucl/apps/gcc/4.9.2/bin/../lib/gcc/x86_64-unknown-linux-gnu/4.9.2/ -mtune=corei7 -march=x86-64 -g -Og
REM COMMAND_LINE
REM seed 106218047 -1082972811 347662637 1364050082 1535739774 1904310520 1323305521 -997780339 -1769273390 1715669777 1254820909 1784116712
REM
REM S 3|1.8|5|6|7|30:31:32(qc=5)
REM O 2|1.5|12|13|15|20:21(qc=5)
REM Li 1|1.3|8|9|10|10U:20(qc=5)
REM Fe 3|2.2|2.0|1.0|8|9|10|40:41:32(qc=5)
REM 
CELL 1.54180    5.07371    9.58938    9.58938   65.74829   72.45547   72.45547
LATT -1
SFAC Li O  S  Fe 
Li     1 -0.0574470000000 -0.3237380000000 -0.1831320000000 1.0   0.00
Li     1  0.4425530000000 -0.1831320000000 -0.3237380000000 1.0   0.00
Li     1  0.0608800000000  0.2577200000000 -0.3194910000000 1.0   0.02
Li     1  0.5608800000000 -0.3194910000000  0.2577200000000 1.0   0.02
Li     1  0.1366240000000 -0.4593100000000  0.4610120000000 1.0  -0.01
Li     1 -0.3633760000000  0.4610120000000 -0.4593100000000 1.0  -0.01
O      2  0.0555230000000 -0.1345210000000 -0.2635730000000 1.0   0.05
O      2 -0.4444770000000 -0.2635730000000 -0.1345210000000 1.0   0.05
O      2  0.0275560000000  0.3616240000000 -0.5386910000000 1.0  -0.10
O      2  0.5275560000000 -0.5386910000000  0.3616240000000 1.0  -0.10
O      2  0.2270810000000  0.1941210000000  0.2760520000000 1.0  -0.17
O      2 -0.2729190000000  0.2760520000000  0.1941210000000 1.0  -0.17
S      3 -0.0781660000000  0.0055600000000 -0.1971120000000 1.0   0.08
S      3  0.4218340000000 -0.1971120000000  0.0055600000000 1.0   0.08
S      3 -0.3189370000000 -0.2605190000000 -0.5448880000000 1.0   0.03
S      3  0.1810630000000 -0.5448880000000 -0.2605190000000 1.0   0.03
S      3  0.5330590000000  0.2885450000000 -0.1584410000000 1.0  -0.10
S      3  0.0330590000000 -0.1584410000000  0.2885450000000 1.0  -0.10
Fe     4  0.0469030000000  0.0979400000000  0.1775520000000 1.0  -3.04
Fe     4 -0.4530970000000  0.1775520000000  0.0979400000000 1.0  -3.04
Fe     4  0.3745620000000  0.3256340000000  0.3252840000000 1.0  -2.34
Fe     4 -0.1254380000000  0.3252840000000  0.3256340000000 1.0  -2.34
Fe     4  0.5002410000000  0.0330860000000 -0.0445580000000 1.0  -1.81
Fe     4  0.0002410000000 -0.0445580000000  0.0330860000000 1.0  -1.81
END
