TITL LFSO-Li5FeSO3-200910-070909-452e11 0.0289 124.520330 -3.48163659E+003 4.99906 5.04622 10 (Cm) n - 1
REM
REM Run started: Thu, 10 Sep 2020 08:41:25 +0100 in /lustre/scratch/uccabz1/launch_tmp/launcher_2020-09-10-06-09-07-665974
REM CASTEP 20.1 from code version af48c487+ pr-geom-scf-spinfix Tue Jun 2 15:39:59 2020 +0100
REM Functional Perdew Burke Ernzerhof Relativity Koelling-Harmon Dispersion off
REM Cut-off 340.0000 eV Grid scale 1.7500 Gmax 16.5316 1/A FBSC none
REM MP grid 4 4 5 Offset 0.000 0.000 0.000 No. kpts 26 Spacing 0.07
REM Total runtime: 5595.91 s
REM Overall efficiency: 93.75 %
REM
REM
REM
REM compiler GCC version 4.9.2
REM options -cpp -iprefix /lustre/shared/ucl/apps/gcc/4.9.2/bin/../lib/gcc/x86_64-unknown-linux-gnu/4.9.2/ -mtune=corei7 -march=x86-64 -g -Og
REM COMMAND_LINE
REM seed 2078805774 1916454161 87059846 2123492402 1391007908 -1704181998 -1640425642 -832686033 -1170868290 -534113588 962414327 -1311692902
REM
REM S 3|1.8|5|6|7|30:31:32(qc=5)
REM O 2|1.5|12|13|15|20:21(qc=5)
REM Li 1|1.3|8|9|10|10U:20(qc=5)
REM Fe 3|2.2|2.0|1.0|8|9|10|40:41:32(qc=5)
REM 
CELL 1.54180    6.22673    6.22673    6.24227   48.09090   48.09090   76.04731
LATT -1
SFAC Li O  S  Fe 
Li     1 -0.2681900000000  0.3479420000000 -0.4962120000000 1.0  -0.05
Li     1  0.3479420000000 -0.2681900000000 -0.4962120000000 1.0  -0.05
Li     1 -0.3690780000000  0.2581370000000  0.1667120000000 1.0   0.05
Li     1  0.2581370000000 -0.3690780000000  0.1667120000000 1.0   0.05
Li     1  0.1069110000000  0.1069110000000 -0.1575020000000 1.0   0.02
O      2 -0.2544280000000  0.1309540000000 -0.0965050000000 1.0   0.33
O      2  0.1309540000000 -0.2544280000000 -0.0965050000000 1.0   0.33
O      2 -0.5367600000000  0.4632400000000  0.3844100000000 1.0   0.27
S      3 -0.0884580000000 -0.0884580000000  0.4322380000000 1.0   0.30
Fe     4  0.8296370000000 -0.1703630000000 -0.1132880000000 1.0   3.76
END
