TITL LFSO-Li5FeSO3-200910-062706-6bf7fd -0.0430 154.101690 -3.48073919E+003 -4.25042 4.36107 10 (Pm) n - 1
REM
REM Run started: Thu, 10 Sep 2020 07:39:45 +0100 in /lustre/scratch/uccabz1/launch_tmp/launcher_2020-09-10-05-27-03-395981
REM CASTEP 20.1 from code version af48c487+ pr-geom-scf-spinfix Tue Jun 2 15:39:59 2020 +0100
REM Functional Perdew Burke Ernzerhof Relativity Koelling-Harmon Dispersion off
REM Cut-off 340.0000 eV Grid scale 1.7500 Gmax 16.5316 1/A FBSC none
REM MP grid 3 6 2 Offset 0.000 0.000 0.000 No. kpts 9 Spacing 0.07
REM Total runtime: 4822.29 s
REM Overall efficiency: 87.1 %
REM
REM
REM
REM compiler GCC version 4.9.2
REM options -cpp -iprefix /lustre/shared/ucl/apps/gcc/4.9.2/bin/../lib/gcc/x86_64-unknown-linux-gnu/4.9.2/ -mtune=corei7 -march=x86-64 -g -Og
REM COMMAND_LINE
REM seed -534358581 281547273 2121693456 -1953014440 -2028292838 -273698936 606872067 -276795605 1877435589 1164243207 1865475666 -2142870910
REM
REM S 3|1.8|5|6|7|30:31:32(qc=5)
REM O 2|1.5|12|13|15|20:21(qc=5)
REM Li 1|1.3|8|9|10|10U:20(qc=5)
REM Fe 3|2.2|2.0|1.0|8|9|10|40:41:32(qc=5)
REM 
CELL 1.54180    6.97452    3.33065    8.14086   90.00000   90.00000  125.42439
LATT -1
SFAC Li O  S  Fe 
Li     1 -0.2171630000000  0.3905880000000 -0.2151710000000 1.0   0.03
Li     1 -0.2171630000000  0.3905880000000  0.2151710000000 1.0   0.03
Li     1  0.1899780000000 -0.1666070000000 -0.3057570000000 1.0  -0.03
Li     1  0.1899780000000 -0.1666070000000  0.3057570000000 1.0  -0.03
Li     1 -0.0766670000000  0.0441550000000  0.0000000000000 1.0  -0.00
O      2  0.0003470000000  0.1168370000000 -0.3058220000000 1.0  -0.33
O      2  0.0003470000000  0.1168370000000  0.3058220000000 1.0  -0.33
O      2 -0.1792770000000 -0.5802620000000  0.0000000000000 1.0  -0.01
S      3  0.5417300000000  0.0956920000000 -0.5000000000000 1.0  -0.09
Fe     4 -0.1654480000000 -0.0638220000000  0.5000000000000 1.0  -3.49
END
