TITL LFSO-Li2Fe2SO3-200913-064538-6e880f 0.0219 375.129605 -1.12336812E+004 17.7009 18.1988 24 (P32) n - 1
REM
REM Run started: Sun, 13 Sep 2020 17:40:53 +0100 in /lustre/scratch/uccabz1/launch_tmp/launcher_2020-09-13-05-45-35-350538
REM CASTEP 20.1 from code version af48c487+ pr-geom-scf-spinfix Tue Jun 2 15:39:59 2020 +0100
REM Functional Perdew Burke Ernzerhof Relativity Koelling-Harmon Dispersion off
REM Cut-off 340.0000 eV Grid scale 1.7500 Gmax 16.5316 1/A FBSC none
REM MP grid 3 3 2 Offset 0.000 0.000 0.000 No. kpts 5 Spacing 0.07
REM Total runtime: 44478.8 s
REM Overall efficiency: 74.8 %
REM
REM
REM
REM compiler GCC version 4.9.2
REM options -cpp -iprefix /lustre/shared/ucl/apps/gcc/4.9.2/bin/../lib/gcc/x86_64-unknown-linux-gnu/4.9.2/ -mtune=corei7 -march=x86-64 -g -Og
REM COMMAND_LINE
REM seed 43334976 141509875 1695694560 114361678 -650016456 1133145444 -767113211 1022865714 -1748855485 -2065339526 213021409 -785879410
REM
REM S 3|1.8|5|6|7|30:31:32(qc=5)
REM O 2|1.5|12|13|15|20:21(qc=5)
REM Li 1|1.3|8|9|10|10U:20(qc=5)
REM Fe 3|2.2|2.0|1.0|8|9|10|40:41:32(qc=5)
REM 
CELL 1.54180    7.75337    7.75337    7.20559   90.00000   90.00000  120.00000
LATT -1
SFAC Li O  S  Fe 
Li     1  0.2168600000000  0.4489650000000  0.1029840000000 1.0  -0.01
Li     1 -0.4489650000000 -0.2321050000000 -0.2303490000000 1.0  -0.01
Li     1  0.2321050000000 -0.2168600000000 -0.5636830000000 1.0  -0.01
Li     1 -0.3452680000000  0.0485790000000 -0.4584230000000 1.0   0.02
Li     1 -0.0485790000000  0.6061530000000  0.2082440000000 1.0   0.02
Li     1 -0.6061530000000  0.3452680000000 -0.1250900000000 1.0   0.02
O      2  0.1903050000000  0.2091080000000 -0.3533970000000 1.0   0.14
O      2 -0.2091080000000 -0.0188030000000  0.3132700000000 1.0   0.14
O      2  0.0188030000000 -0.1903050000000 -0.0200630000000 1.0   0.14
O      2 -0.1901370000000 -0.0447300000000 -0.3147250000000 1.0   0.21
O      2  0.0447300000000 -0.1454060000000  0.3519420000000 1.0   0.21
O      2  0.1454060000000  0.1901370000000  0.0186090000000 1.0   0.21
O      2  0.1023340000000 -0.4947500000000  0.3196060000000 1.0   0.32
O      2  0.4947500000000  0.5970840000000 -0.0137270000000 1.0   0.32
O      2 -0.5970840000000 -0.1023340000000 -0.3470610000000 1.0   0.32
S      3  0.4623090000000 -0.0415530000000  0.0755900000000 1.0   0.26
S      3  0.0415530000000 -0.4961380000000 -0.2577430000000 1.0   0.26
S      3  0.4961380000000 -0.4623090000000  0.4089230000000 1.0   0.26
Fe     4  0.2332110000000 -0.1754660000000 -0.1648870000000 1.0   2.73
Fe     4  0.1754660000000  0.4086770000000  0.5017800000000 1.0   2.73
Fe     4 -0.4086770000000 -0.2332110000000  0.1684470000000 1.0   2.73
Fe     4 -0.0177960000000 -0.0305450000000  0.1639070000000 1.0   2.24
Fe     4  0.0305450000000  0.0127490000000 -0.1694260000000 1.0   2.24
Fe     4 -0.0127490000000  0.0177960000000  0.4972400000000 1.0   2.24
END
