TITL LFSO-Li2Fe3S3O-200912-211107-3510f0 0.1884 277.915473 -8.68068098E+003 -15.7950 16.3652 18 (C2) n - 1
REM
REM Run started: Mon, 14 Sep 2020 01:07:07 +0100 in /lustre/scratch/uccabz1/launch_tmp/launcher_2020-09-13-17-12-37-284235
REM CASTEP 20.1 from code version af48c487+ pr-geom-scf-spinfix Tue Jun 2 15:39:59 2020 +0100
REM Functional Perdew Burke Ernzerhof Relativity Koelling-Harmon Dispersion off
REM Cut-off 340.0000 eV Grid scale 1.7500 Gmax 16.5316 1/A FBSC none
REM MP grid 3 3 3 Offset 0.000 0.000 0.000 No. kpts 10 Spacing 0.07
REM Total runtime: 69843.2 s
REM Overall efficiency: 74.3636 %
REM
REM
REM
REM compiler GCC version 4.9.2
REM options -cpp -iprefix /lustre/shared/ucl/apps/gcc/4.9.2/bin/../lib/gcc/x86_64-unknown-linux-gnu/4.9.2/ -mtune=corei7 -march=x86-64 -g -Og
REM COMMAND_LINE
REM seed 1144531418 1763270272 -255346212 1109051867 -591465810 684556806 66879988 -1738571276 483414515 -1291935854 603729666 -279574453
REM
REM S 3|1.8|5|6|7|30:31:32(qc=5)
REM O 2|1.5|12|13|15|20:21(qc=5)
REM Li 1|1.3|8|9|10|10U:20(qc=5)
REM Fe 3|2.2|2.0|1.0|8|9|10|40:41:32(qc=5)
REM 
CELL 1.54180    6.98478    6.85084    6.85084  106.96965  105.99241  105.99241
LATT -1
SFAC Li O  S  Fe 
Li     1  0.2445670000000 -0.5154800000000  0.3017510000000 1.0  -0.01
Li     1 -0.2445670000000 -0.3017510000000  0.5154800000000 1.0  -0.01
Li     1  0.3279640000000 -0.2416370000000 -0.2449870000000 1.0   0.02
Li     1 -0.3279640000000  0.2449870000000  0.2416370000000 1.0   0.02
O      2  0.3147620000000 -0.5327920000000 -0.4035350000000 1.0  -0.25
O      2 -0.3147620000000  0.4035350000000  0.5327920000000 1.0  -0.25
S      3  0.0419750000000 -0.5186130000000 -0.0566730000000 1.0  -0.08
S      3 -0.0419750000000  0.0566730000000  0.5186130000000 1.0  -0.08
S      3 -0.3927630000000 -0.4501090000000  0.1121610000000 1.0  -0.07
S      3  0.3927630000000 -0.1121610000000  0.4501090000000 1.0  -0.07
S      3 -0.2775950000000 -0.0479760000000 -0.1174250000000 1.0  -0.10
S      3  0.2775950000000  0.1174250000000  0.0479760000000 1.0  -0.10
Fe     4  0.2627590000000  0.3222360000000 -0.1871070000000 1.0  -2.52
Fe     4 -0.2627590000000  0.1871070000000 -0.3222360000000 1.0  -2.52
Fe     4 -0.3664710000000  0.5450010000000 -0.2058330000000 1.0  -2.96
Fe     4  0.3664710000000  0.2058330000000 -0.5450010000000 1.0  -2.96
Fe     4  0.1426390000000 -0.1659740000000  0.1310760000000 1.0  -1.94
Fe     4 -0.1426390000000 -0.1310760000000  0.1659740000000 1.0  -1.94
END
