TITL LFSO-Li4Fe2S3O2-200911-053218-233933 0.3155 899.704943 -8.62545577E+003 -13.9788 14.7176 22 (Cm) n - 1
REM
REM Run started: Sat, 12 Sep 2020 14:05:15 +0100 in /lustre/scratch/uccabz1/launch_tmp/launcher_2020-09-12-11-23-01-820792
REM CASTEP 20.1 from code version af48c487+ pr-geom-scf-spinfix Tue Jun 2 15:39:59 2020 +0100
REM Functional Perdew Burke Ernzerhof Relativity Koelling-Harmon Dispersion off
REM Cut-off 340.0000 eV Grid scale 1.7500 Gmax 16.5316 1/A FBSC none
REM MP grid 2 2 2 Offset 0.000 0.000 0.000 No. kpts 3 Spacing 0.07
REM Total runtime: 108916 s
REM Overall efficiency: 98.9167 %
REM
REM
REM
REM compiler GCC version 4.9.2
REM options -cpp -iprefix /lustre/shared/ucl/apps/gcc/4.9.2/bin/../lib/gcc/x86_64-unknown-linux-gnu/4.9.2/ -mtune=corei7 -march=x86-64 -g -Og
REM COMMAND_LINE
REM seed 46382026 -2141901652 -253996979 -907512883 -600464587 2057108227 -2131849990 1178868735 1741562633 1560059357 342476120 134421156
REM
REM S 3|1.8|5|6|7|30:31:32(qc=5)
REM O 2|1.5|12|13|15|20:21(qc=5)
REM Li 1|1.3|8|9|10|10U:20(qc=5)
REM Fe 3|2.2|2.0|1.0|8|9|10|40:41:32(qc=5)
REM 
CELL 1.54180   12.34396   12.34396   10.36341  108.83919  108.83919  125.93662
LATT -1
SFAC Li O  S  Fe 
Li     1 -0.0186930000000 -0.4243070000000 -0.1238700000000 1.0  -0.04
Li     1 -0.4243070000000 -0.0186930000000 -0.1238700000000 1.0  -0.04
Li     1  0.2573240000000 -0.2667250000000 -0.1190640000000 1.0  -0.01
Li     1 -0.2667250000000  0.2573240000000 -0.1190640000000 1.0  -0.01
Li     1 -0.1934760000000  0.1856610000000 -0.3064680000000 1.0   0.05
Li     1  0.1856610000000 -0.1934760000000 -0.3064680000000 1.0   0.05
Li     1 -0.1578350000000  0.3549130000000  0.3006250000000 1.0  -0.00
Li     1  0.3549130000000 -0.1578350000000  0.3006250000000 1.0  -0.00
O      2 -0.3580350000000  0.3062150000000  0.2081540000000 1.0  -0.25
O      2  0.3062150000000 -0.3580350000000  0.2081540000000 1.0  -0.25
O      2 -0.0806890000000  0.3992120000000 -0.1115280000000 1.0  -0.21
O      2  0.3992120000000 -0.0806890000000 -0.1115280000000 1.0  -0.21
S      3  0.2779870000000 -0.1029790000000  0.1140660000000 1.0  -0.18
S      3 -0.1029790000000  0.2779870000000  0.1140660000000 1.0  -0.18
S      3 -0.1705580000000 -0.2711330000000  0.4732010000000 1.0  -0.04
S      3 -0.2711330000000 -0.1705580000000  0.4732010000000 1.0  -0.04
S      3  0.5279440000000 -0.0519060000000 -0.3936580000000 1.0  -0.15
S      3 -0.0519060000000  0.5279440000000 -0.3936580000000 1.0  -0.15
Fe     4 -0.4997170000000 -0.2467900000000 -0.5768340000000 1.0  -3.21
Fe     4 -0.2467900000000 -0.4997170000000 -0.5768340000000 1.0  -3.21
Fe     4  0.4571020000000  0.0681570000000  0.0846350000000 1.0  -2.94
Fe     4  0.0681570000000  0.4571020000000  0.0846350000000 1.0  -2.94
END
