TITL LFSO-Li4Fe2S4O-200910-175633-ecc9b5 -0.1160 860.029726 -8.35039436E+003 0.995128 1.68890 22 (Amm2) n - 1
REM
REM Run started: Sat, 12 Sep 2020 15:15:20 +0100 in /lustre/scratch/uccabz1/launch_tmp/launcher_2020-09-12-10-56-10-266156
REM CASTEP 20.1 from code version af48c487+ pr-geom-scf-spinfix Tue Jun 2 15:39:59 2020 +0100
REM Functional Perdew Burke Ernzerhof Relativity Koelling-Harmon Dispersion off
REM Cut-off 340.0000 eV Grid scale 1.7500 Gmax 16.5316 1/A FBSC none
REM MP grid 4 4 2 Offset 0.000 0.000 0.000 No. kpts 6 Spacing 0.07
REM Total runtime: 150731 s
REM Overall efficiency: 98.6154 %
REM
REM
REM
REM compiler GCC version 4.9.2
REM options -cpp -iprefix /lustre/shared/ucl/apps/gcc/4.9.2/bin/../lib/gcc/x86_64-unknown-linux-gnu/4.9.2/ -mtune=corei7 -march=x86-64 -g -Og
REM COMMAND_LINE
REM seed -1356603794 -1340061776 1651509249 2051011022 847870929 700363093 -671362354 1268172961 -1309537429 306605336 -2014374461 -1635692322
REM
REM S 3|1.8|5|6|7|30:31:32(qc=5)
REM O 2|1.5|12|13|15|20:21(qc=5)
REM Li 1|1.3|8|9|10|10U:20(qc=5)
REM Fe 3|2.2|2.0|1.0|8|9|10|40:41:32(qc=5)
REM 
CELL 1.54180   14.11592   14.11592   12.85763   90.00000   90.00000  160.38569
LATT -1
SFAC Li O  S  Fe 
Li     1  0.2843390000000  0.0450960000000  0.3739660000000 1.0  -0.03
Li     1  0.0450960000000  0.2843390000000 -0.3739660000000 1.0  -0.03
Li     1  0.0450960000000  0.2843390000000  0.3739660000000 1.0  -0.03
Li     1  0.2843390000000  0.0450960000000 -0.3739660000000 1.0  -0.03
Li     1 -0.5584950000000 -0.1372600000000 -0.3805530000000 1.0   0.01
Li     1 -0.1372600000000 -0.5584950000000  0.3805530000000 1.0   0.01
Li     1 -0.1372600000000 -0.5584950000000 -0.3805530000000 1.0   0.01
Li     1 -0.5584950000000 -0.1372600000000  0.3805530000000 1.0   0.01
O      2 -0.1053020000000  0.4269260000000  0.0000000000000 1.0  -0.02
O      2  0.4269260000000 -0.1053020000000  0.0000000000000 1.0  -0.02
S      3 -0.0490410000000  0.3551030000000  0.3270040000000 1.0  -0.01
S      3  0.3551030000000 -0.0490410000000 -0.3270040000000 1.0  -0.01
S      3  0.3551030000000 -0.0490410000000  0.3270040000000 1.0  -0.01
S      3 -0.0490410000000  0.3551030000000 -0.3270040000000 1.0  -0.01
S      3 -0.5631170000000 -0.1490030000000 -0.1209090000000 1.0  -0.03
S      3 -0.1490030000000 -0.5631170000000  0.1209090000000 1.0  -0.03
S      3 -0.1490030000000 -0.5631170000000 -0.1209090000000 1.0  -0.03
S      3 -0.5631170000000 -0.1490030000000  0.1209090000000 1.0  -0.03
Fe     4  0.1488590000000  0.6504390000000 -0.2193800000000 1.0   0.31
Fe     4  0.6504390000000  0.1488590000000  0.2193800000000 1.0   0.31
Fe     4  0.6504390000000  0.1488590000000 -0.2193800000000 1.0   0.31
Fe     4  0.1488590000000  0.6504390000000  0.2193800000000 1.0   0.31
END
