TITL LFSO-Li4Fe3SO4-200930-211445-6cfbc8 -0.0016 175.203087 -5.44440139E+003 -8.00000 8.36587 12 (Cmm2) n - 1
REM
REM Run started: Wed, 30 Sep 2020 22:18:12 +0100 in /lustre/scratch/uccabz1/launch_tmp/launcher_2020-09-30-20-14-44-292087
REM CASTEP 20.1 from code version af48c487+ pr-geom-scf-spinfix Tue Jun 2 15:39:59 2020 +0100
REM Functional Perdew Burke Ernzerhof Relativity Koelling-Harmon Dispersion off
REM Cut-off 340.0000 eV Grid scale 1.7500 Gmax 16.5316 1/A FBSC none
REM MP grid 4 3 3 Offset 0.000 0.000 0.000 No. kpts 8 Spacing 0.07
REM Total runtime: 4563.6 s
REM Overall efficiency: 94.6667 %
REM
REM
REM
REM compiler GCC version 4.9.2
REM options -cpp -iprefix /lustre/shared/ucl/apps/gcc/4.9.2/bin/../lib/gcc/x86_64-unknown-linux-gnu/4.9.2/ -mtune=corei7 -march=x86-64 -g -Og
REM COMMAND_LINE
REM seed -1497101777 -935052548 783400165 -1030215272 -233514516 96064196 -194220609 2137771225 -316546503 -723905237 499753840 -660909257
REM
REM S 3|1.8|5|6|7|30:31:32(qc=5)
REM O 2|1.5|12|13|15|20:21(qc=5)
REM Li 1|1.3|8|9|10|10U:20(qc=5)
REM Fe 3|2.2|2.0|1.0|8|9|10|40:41:32(qc=5)
REM 
CELL 1.54180    4.07143    8.26640    8.26640  140.96898   90.00000   90.00000
LATT -1
SFAC Li O  S  Fe 
Li     1 -0.2367310000000  0.3788450000000  0.1053690000000 1.0   0.07
Li     1 -0.2367310000000 -0.3788450000000 -0.1053690000000 1.0   0.07
Li     1 -0.2367310000000  0.1053690000000  0.3788450000000 1.0   0.07
Li     1 -0.2367310000000 -0.1053690000000 -0.3788450000000 1.0   0.07
O      2  0.2608420000000  0.4165590000000  0.0806900000000 1.0  -0.12
O      2  0.2608420000000 -0.4165590000000 -0.0806900000000 1.0  -0.12
O      2  0.2608420000000  0.0806900000000  0.4165590000000 1.0  -0.12
O      2  0.2608420000000 -0.0806900000000 -0.4165590000000 1.0  -0.12
S      3 -0.2562310000000  0.0000000000000  0.0000000000000 1.0  -0.12
Fe     4  0.2688990000000 -0.2503990000000  0.2503990000000 1.0  -2.28
Fe     4  0.2688990000000  0.2503990000000 -0.2503990000000 1.0  -2.28
Fe     4  0.2436840000000  0.0000000000000  0.0000000000000 1.0  -3.13
END
