TITL LFSO-Li2Fe3S3O-200912-213226-f5d823 -0.0865 264.472737 -8.68063360E+003 0.395922E-01 0.811497E-01 18 (P-1) n - 1
REM
REM Run started: Mon, 14 Sep 2020 00:09:49 +0100 in /lustre/scratch/uccabz1/launch_tmp/launcher_2020-09-13-22-12-22-205346
REM CASTEP 20.1 from code version af48c487+ pr-geom-scf-spinfix Tue Jun 2 15:39:59 2020 +0100
REM Functional Perdew Burke Ernzerhof Relativity Koelling-Harmon Dispersion off
REM Cut-off 340.0000 eV Grid scale 1.7500 Gmax 16.5316 1/A FBSC none
REM MP grid 6 3 2 Offset 0.000 0.000 0.000 No. kpts 18 Spacing 0.07
REM Total runtime: 86876.6 s
REM Overall efficiency: 98.5 %
REM
REM
REM
REM compiler GCC version 4.9.2
REM options -cpp -iprefix /lustre/shared/ucl/apps/gcc/4.9.2/bin/../lib/gcc/x86_64-unknown-linux-gnu/4.9.2/ -mtune=corei7 -march=x86-64 -g -Og
REM COMMAND_LINE
REM seed -832055075 921692059 -1926255746 523962460 -1993896929 150685333 -1689179476 -84546376 -608545075 1425549692 -318532031 670080423
REM
REM S 3|1.8|5|6|7|30:31:32(qc=5)
REM O 2|1.5|12|13|15|20:21(qc=5)
REM Li 1|1.3|8|9|10|10U:20(qc=5)
REM Fe 3|2.2|2.0|1.0|8|9|10|40:41:32(qc=5)
REM 
CELL 1.54180    3.47404    7.10685   14.49879   91.07486  115.55312  120.62402
LATT -1
SFAC Li O  S  Fe 
Li     1  0.3718620000000  0.4982470000000  0.2364180000000 1.0  -0.00
Li     1 -0.3718620000000 -0.4982470000000 -0.2364180000000 1.0  -0.00
Li     1  0.0067020000000  0.2543070000000 -0.4898620000000 1.0   0.00
Li     1 -0.0067020000000 -0.2543070000000  0.4898620000000 1.0   0.00
O      2 -0.3304830000000  0.4374850000000  0.1627340000000 1.0   0.00
O      2  0.3304830000000 -0.4374850000000 -0.1627340000000 1.0   0.00
S      3  0.1898280000000  0.3447190000000  0.3679210000000 1.0  -0.00
S      3 -0.1898280000000 -0.3447190000000 -0.3679210000000 1.0  -0.00
S      3 -0.3681240000000 -0.0662000000000  0.1378830000000 1.0  -0.00
S      3  0.3681240000000  0.0662000000000 -0.1378830000000 1.0  -0.00
S      3 -0.4180680000000  0.1475870000000 -0.3646430000000 1.0  -0.00
S      3  0.4180680000000 -0.1475870000000  0.3646430000000 1.0  -0.00
Fe     4  0.0081330000000 -0.0060240000000 -0.3106640000000 1.0  -0.00
Fe     4 -0.0081330000000  0.0060240000000  0.3106640000000 1.0  -0.00
Fe     4  0.4954000000000 -0.1773540000000 -0.2025900000000 1.0   0.01
Fe     4 -0.4954000000000  0.1773540000000  0.2025900000000 1.0   0.01
Fe     4  0.0264170000000 -0.2513630000000  0.1898470000000 1.0   0.02
Fe     4 -0.0264170000000  0.2513630000000 -0.1898470000000 1.0   0.02
END
