TITL LFSO-LiFe3S4O-200909-075028-08eb2c 0.0424 351.499302 -8.88404526E+003 12.1590 14.0811 18 (P222) n - 1
REM
REM Run started: Wed, 09 Sep 2020 14:30:12 +0100 in /lustre/scratch/uccabz1/launch_tmp/launcher_2020-09-09-06-50-26-272782
REM CASTEP 20.1 from code version af48c487+ pr-geom-scf-spinfix Tue Jun 2 15:39:59 2020 +0100
REM Functional Perdew Burke Ernzerhof Relativity Koelling-Harmon Dispersion off
REM Cut-off 340.0000 eV Grid scale 1.7500 Gmax 16.5316 1/A FBSC none
REM MP grid 4 2 2 Offset 0.000 0.000 0.000 No. kpts 2 Spacing 0.07
REM Total runtime: 25064.1 s
REM Overall efficiency: 89.4444 %
REM
REM
REM
REM compiler GCC version 4.9.2
REM options -cpp -iprefix /lustre/shared/ucl/apps/gcc/4.9.2/bin/../lib/gcc/x86_64-unknown-linux-gnu/4.9.2/ -mtune=corei7 -march=x86-64 -g -Og
REM COMMAND_LINE
REM seed -1909361275 -1995203651 -2134567382 905916283 1148868117 184007571 -204278670 136722431 -981910096 2073552996 -1035241486 -1253472703
REM
REM S 3|1.8|5|6|7|30:31:32(qc=5)
REM O 2|1.5|12|13|15|20:21(qc=5)
REM Li 1|1.3|8|9|10|10U:20(qc=5)
REM Fe 3|2.2|2.0|1.0|8|9|10|40:41:32(qc=5)
REM 
CELL 1.54180    3.76032    7.87147   11.87528   90.00000   90.00000   90.00000
LATT -1
SFAC Li O  S  Fe 
Li     1 -0.5000000000000  0.0000000000000 -0.3627060000000 1.0   0.00
Li     1  0.5000000000000  0.0000000000000  0.3627060000000 1.0   0.00
O      2  0.5000000000000 -0.3099790000000  0.0000000000000 1.0   0.17
O      2 -0.5000000000000  0.3099790000000  0.0000000000000 1.0   0.17
S      3  0.2569810000000 -0.2559300000000  0.4564920000000 1.0  -0.12
S      3  0.2569810000000  0.2559300000000 -0.4564920000000 1.0  -0.12
S      3 -0.2569810000000  0.2559300000000  0.4564920000000 1.0  -0.12
S      3 -0.2569810000000 -0.2559300000000 -0.4564920000000 1.0  -0.12
S      3 -0.2318140000000  0.1449920000000 -0.1887960000000 1.0  -0.06
S      3 -0.2318140000000 -0.1449920000000  0.1887960000000 1.0  -0.06
S      3  0.2318140000000 -0.1449920000000 -0.1887960000000 1.0  -0.06
S      3  0.2318140000000  0.1449920000000  0.1887960000000 1.0  -0.06
Fe     4 -0.2661820000000 -0.1006080000000 -0.0855680000000 1.0   1.78
Fe     4 -0.2661820000000  0.1006080000000  0.0855680000000 1.0   1.78
Fe     4  0.2661820000000  0.1006080000000 -0.0855680000000 1.0   1.78
Fe     4  0.2661820000000 -0.1006080000000  0.0855680000000 1.0   1.78
Fe     4  0.0000000000000  0.3542360000000  0.0000000000000 1.0   2.71
Fe     4  0.0000000000000 -0.3542360000000  0.0000000000000 1.0   2.71
END
