TITL LFSO-Li2FeSO-200912-002741-a60ea8 0.0132 94.485978 -2.00503141E+003 2.00737 2.28417 5 (C2) n - 1
REM
REM Run started: Sat, 12 Sep 2020 01:08:15 +0100 in /lustre/scratch/uccabz1/launch_tmp/launcher_2020-09-11-23-27-40-280968
REM CASTEP 20.1 from code version af48c487+ pr-geom-scf-spinfix Tue Jun 2 15:39:59 2020 +0100
REM Functional Perdew Burke Ernzerhof Relativity Koelling-Harmon Dispersion off
REM Cut-off 340.0000 eV Grid scale 1.7500 Gmax 16.5316 1/A FBSC none
REM MP grid 6 3 3 Offset 0.000 0.000 0.000 No. kpts 18 Spacing 0.07
REM Total runtime: 2601.37 s
REM Overall efficiency: 90.5556 %
REM
REM
REM
REM compiler GCC version 4.9.2
REM options -cpp -iprefix /lustre/shared/ucl/apps/gcc/4.9.2/bin/../lib/gcc/x86_64-unknown-linux-gnu/4.9.2/ -mtune=corei7 -march=x86-64 -g -Og
REM COMMAND_LINE
REM seed 458306789 1601356290 -1146689972 1314782111 1662968150 875951328 2033393107 -418664997 123275338 488296663 7420806 1226929393
REM
REM S 3|1.8|5|6|7|30:31:32(qc=5)
REM O 2|1.5|12|13|15|20:21(qc=5)
REM Li 1|1.3|8|9|10|10U:20(qc=5)
REM Fe 3|2.2|2.0|1.0|8|9|10|40:41:32(qc=5)
REM 
CELL 1.54180    3.05124    6.21413    6.21413  102.70529   69.16876   69.16876
LATT -1
SFAC Li O  S  Fe 
Li     1 -0.6361000000000  0.4238230000000  0.0361380000000 1.0  -0.03
Li     1  0.6361000000000 -0.0361380000000 -0.4238230000000 1.0  -0.03
O      2  0.5000000000000  0.2936460000000 -0.2936460000000 1.0   0.05
S      3 -0.5000000000000 -0.4044640000000  0.4044640000000 1.0  -0.04
Fe     4 -0.0000000000000  0.4238410000000 -0.4238410000000 1.0   2.06
END
