TITL LFSO-Li2Fe2S2O-200913-122647-d25204 -0.0460 215.156666 -6.34465692E+003 14.2837 14.5198 14 (R3m) n - 1
REM
REM Run started: Sun, 13 Sep 2020 18:07:45 +0100 in /lustre/scratch/uccabz1/launch_tmp/launcher_2020-09-13-11-26-45-025396
REM CASTEP 20.1 from code version af48c487+ pr-geom-scf-spinfix Tue Jun 2 15:39:59 2020 +0100
REM Functional Perdew Burke Ernzerhof Relativity Koelling-Harmon Dispersion off
REM Cut-off 340.0000 eV Grid scale 1.7500 Gmax 16.5316 1/A FBSC none
REM MP grid 3 3 3 Offset 0.000 0.000 0.000 No. kpts 6 Spacing 0.07
REM Total runtime: 22480.7 s
REM Overall efficiency: 97.75 %
REM
REM
REM
REM compiler GCC version 4.9.2
REM options -cpp -iprefix /lustre/shared/ucl/apps/gcc/4.9.2/bin/../lib/gcc/x86_64-unknown-linux-gnu/4.9.2/ -mtune=corei7 -march=x86-64 -g -Og
REM COMMAND_LINE
REM seed 1235277554 1757017604 -1003667371 51458756 9227745 1946134361 -1864898645 1286416770 -1099494391 -220100503 1751252003 -989848438
REM
REM S 3|1.8|5|6|7|30:31:32(qc=5)
REM O 2|1.5|12|13|15|20:21(qc=5)
REM Li 1|1.3|8|9|10|10U:20(qc=5)
REM Fe 3|2.2|2.0|1.0|8|9|10|40:41:32(qc=5)
REM 
CELL 1.54180    7.03539    7.03539    7.03539   54.58451   54.58451   54.58451
LATT -1
SFAC Li O  S  Fe 
Li     1  0.0827370000000  0.0823130000000  0.4966700000000 1.0  -0.03
Li     1  0.0823130000000  0.4966700000000  0.0827370000000 1.0  -0.03
Li     1  0.4966700000000  0.0827370000000  0.0823130000000 1.0  -0.03
Li     1  0.3653720000000  0.3653720000000  0.3653720000000 1.0  -0.04
O      2 -0.3382870000000 -0.3382870000000 -0.3382870000000 1.0   0.23
O      2  0.2695600000000  0.2695600000000  0.2695600000000 1.0   0.10
S      3  0.2876630000000 -0.2238380000000  0.2926120000000 1.0   0.16
S      3 -0.2238380000000  0.2926120000000  0.2876630000000 1.0   0.16
S      3  0.2926120000000  0.2876630000000 -0.2238380000000 1.0   0.16
S      3 -0.0513290000000 -0.0513290000000 -0.0513290000000 1.0   0.24
Fe     4 -0.1148960000000  0.3527460000000 -0.1194040000000 1.0   3.34
Fe     4  0.3527460000000 -0.1194040000000 -0.1148960000000 1.0   3.34
Fe     4 -0.1194040000000 -0.1148960000000  0.3527460000000 1.0   3.34
Fe     4 -0.4552390000000 -0.4552390000000 -0.4552390000000 1.0   3.34
END
