TITL LFSO-Li2Fe4S4O-200911-222623-e47493 0.0488 181.790982 -5.50266314E+003 0.106749E-02 0.339972E-02 11 (P3) n - 1
REM
REM Run started: Sat, 12 Sep 2020 03:07:31 +0100 in /lustre/scratch/uccabz1/launch_tmp/launcher_2020-09-11-21-26-21-277906
REM CASTEP 20.1 from code version af48c487+ pr-geom-scf-spinfix Tue Jun 2 15:39:59 2020 +0100
REM Functional Perdew Burke Ernzerhof Relativity Koelling-Harmon Dispersion off
REM Cut-off 340.0000 eV Grid scale 1.7500 Gmax 16.5316 1/A FBSC none
REM MP grid 4 4 2 Offset 0.000 0.000 0.000 No. kpts 16 Spacing 0.07
REM Total runtime: 18151.9 s
REM Overall efficiency: 97.8333 %
REM
REM
REM
REM compiler GCC version 4.9.2
REM options -cpp -iprefix /lustre/shared/ucl/apps/gcc/4.9.2/bin/../lib/gcc/x86_64-unknown-linux-gnu/4.9.2/ -mtune=corei7 -march=x86-64 -g -Og
REM COMMAND_LINE
REM seed -2066494005 -1964271731 -1376293736 -1571331144 712161604 -1619476968 1772731475 644928406 1187038183 169186196 1480312571 119468786
REM
REM S 3|1.8|5|6|7|30:31:32(qc=5)
REM O 2|1.5|12|13|15|20:21(qc=5)
REM Li 1|1.3|8|9|10|10U:20(qc=5)
REM Fe 3|2.2|2.0|1.0|8|9|10|40:41:32(qc=5)
REM 
CELL 1.54180    4.81580    4.81580    9.05117   90.00000   90.00000  120.00000
LATT -1
SFAC Li O  S  Fe 
Li     1  0.3333330000000 -0.3333330000000  0.5497880000000 1.0
Li     1  0.0000000000000 -0.0000000000000 -0.1580250000000 1.0
O      2 -0.3333330000000  0.3333330000000 -0.0417830000000 1.0
S      3  0.3452000000000  0.3490240000000  0.2632860000000 1.0
S      3 -0.3490240000000 -0.0038250000000  0.2632860000000 1.0
S      3  0.0038250000000 -0.3452000000000  0.2632860000000 1.0
S      3  0.0000000000000 -0.0000000000000 -0.4190430000000 1.0
Fe     4  0.3596390000000  0.0431420000000  0.0960200000000 1.0
Fe     4 -0.0431420000000  0.3164960000000  0.0960200000000 1.0
Fe     4 -0.3164960000000 -0.3596390000000  0.0960200000000 1.0
Fe     4 -0.3333330000000  0.3333330000000  0.4279550000000 1.0
END
