TITL LFSO-Li2Fe2S2O-200913-124722-f4c821 0.0160 245.633666 -6.34555775E+003 15.8294 16.0410 14 (C2) n - 1
REM
REM Run started: Sun, 13 Sep 2020 19:23:18 +0100 in /lustre/scratch/uccabz1/launch_tmp/launcher_2020-09-13-11-47-20-584775
REM CASTEP 20.1 from code version af48c487+ pr-geom-scf-spinfix Tue Jun 2 15:39:59 2020 +0100
REM Functional Perdew Burke Ernzerhof Relativity Koelling-Harmon Dispersion off
REM Cut-off 340.0000 eV Grid scale 1.7500 Gmax 16.5316 1/A FBSC none
REM MP grid 3 3 2 Offset 0.000 0.000 0.000 No. kpts 6 Spacing 0.07
REM Total runtime: 23841.5 s
REM Overall efficiency: 94.7 %
REM
REM
REM
REM compiler GCC version 4.9.2
REM options -cpp -iprefix /lustre/shared/ucl/apps/gcc/4.9.2/bin/../lib/gcc/x86_64-unknown-linux-gnu/4.9.2/ -mtune=corei7 -march=x86-64 -g -Og
REM COMMAND_LINE
REM seed -1506832305 976701133 375838822 561704129 -1966981214 1390036403 1766138133 1603824699 493632331 -1942103584 -1252638840 -354412616
REM
REM S 3|1.8|5|6|7|30:31:32(qc=5)
REM O 2|1.5|12|13|15|20:21(qc=5)
REM Li 1|1.3|8|9|10|10U:20(qc=5)
REM Fe 3|2.2|2.0|1.0|8|9|10|40:41:32(qc=5)
REM 
CELL 1.54180    6.08683    6.08683    7.49456   87.59006   87.59006  117.43425
LATT -1
SFAC Li O  S  Fe 
Li     1  0.0494520000000  0.4490820000000 -0.5134670000000 1.0  -0.12
Li     1 -0.4490820000000 -0.0494520000000  0.5134670000000 1.0  -0.12
Li     1 -0.4049640000000  0.0761140000000 -0.1393780000000 1.0   0.04
Li     1 -0.0761140000000  0.4049640000000  0.1393780000000 1.0   0.04
O      2  0.1663860000000  0.3679530000000  0.2731350000000 1.0   0.32
O      2 -0.3679530000000 -0.1663860000000 -0.2731350000000 1.0   0.32
S      3  0.5063020000000  0.0289800000000  0.1907720000000 1.0   0.26
S      3 -0.0289800000000 -0.5063020000000 -0.1907720000000 1.0   0.26
S      3  0.3173260000000  0.1643330000000 -0.3528020000000 1.0   0.29
S      3 -0.1643330000000 -0.3173260000000  0.3528020000000 1.0   0.29
Fe     4  0.3540160000000 -0.4783250000000 -0.2268790000000 1.0   3.55
Fe     4  0.4783250000000 -0.3540160000000  0.2268790000000 1.0   3.55
Fe     4 -0.0695400000000 -0.1839560000000 -0.3458170000000 1.0   3.58
Fe     4  0.1839560000000  0.0695400000000  0.3458170000000 1.0   3.58
END
