TITL LFSO-Li2Fe4S2O3-200912-130823-bce1df 0.0247 325.635488 -1.15498268E+004 -23.7758 24.3026 22 (Pc) n - 1
REM
REM Run started: Sun, 13 Sep 2020 22:25:41 +0100 in /lustre/scratch/uccabz1/launch_tmp/launcher_2020-09-12-12-08-21-531131
REM CASTEP 20.1 from code version af48c487+ pr-geom-scf-spinfix Tue Jun 2 15:39:59 2020 +0100
REM Functional Perdew Burke Ernzerhof Relativity Koelling-Harmon Dispersion off
REM Cut-off 340.0000 eV Grid scale 1.7500 Gmax 16.5316 1/A FBSC none
REM MP grid 3 2 3 Offset 0.000 0.000 0.000 No. kpts 6 Spacing 0.07
REM Total runtime: 115912 s
REM Overall efficiency: 85.1538 %
REM
REM
REM
REM compiler GCC version 4.9.2
REM options -cpp -iprefix /lustre/shared/ucl/apps/gcc/4.9.2/bin/../lib/gcc/x86_64-unknown-linux-gnu/4.9.2/ -mtune=corei7 -march=x86-64 -g -Og
REM COMMAND_LINE
REM seed 1651136442 1991366885 1614482031 -1038313251 521493691 -1737753630 803686362 2122617941 -224544217 -172075921 -1175803268 714896158
REM
REM S 3|1.8|5|6|7|30:31:32(qc=5)
REM O 2|1.5|12|13|15|20:21(qc=5)
REM Li 1|1.3|8|9|10|10U:20(qc=5)
REM Fe 3|2.2|2.0|1.0|8|9|10|40:41:32(qc=5)
REM 
CELL 1.54180    6.72038    8.02861    6.16369   78.28441   90.00000   90.00000
LATT -1
SFAC Li O  S  Fe 
Li     1  0.4880080000000  0.4772420000000  0.4839800000000 1.0   0.11
Li     1 -0.4880080000000  0.4772420000000 -0.0160200000000 1.0   0.11
Li     1  0.0397580000000  0.0176200000000  0.5623500000000 1.0   0.01
Li     1 -0.0397580000000  0.0176200000000  0.0623500000000 1.0   0.01
O      2 -0.1825940000000  0.0133300000000  0.3542340000000 1.0  -0.28
O      2  0.1825940000000  0.0133300000000 -0.1457660000000 1.0  -0.28
O      2  0.1732340000000 -0.1799710000000 -0.4412400000000 1.0  -0.24
O      2 -0.1732340000000 -0.1799710000000  0.0587600000000 1.0  -0.24
O      2  0.0758100000000  0.3783590000000 -0.2689900000000 1.0  -0.24
O      2 -0.0758100000000  0.3783590000000  0.2310100000000 1.0  -0.24
S      3 -0.3958880000000 -0.3031520000000 -0.3172710000000 1.0  -0.17
S      3  0.3958880000000 -0.3031520000000  0.1827290000000 1.0  -0.17
S      3  0.3696780000000  0.2542270000000  0.2343810000000 1.0  -0.15
S      3 -0.3696780000000  0.2542270000000 -0.2656190000000 1.0  -0.15
Fe     4 -0.1749990000000  0.4883590000000 -0.2663520000000 1.0  -2.24
Fe     4  0.1749990000000  0.4883590000000  0.2336480000000 1.0  -2.24
Fe     4 -0.2801490000000 -0.2078940000000  0.3362740000000 1.0  -2.69
Fe     4  0.2801490000000 -0.2078940000000 -0.1637260000000 1.0  -2.69
Fe     4 -0.2890410000000  0.2250330000000  0.3582610000000 1.0  -3.55
Fe     4  0.2890410000000  0.2250330000000 -0.1417390000000 1.0  -3.55
Fe     4 -0.1292730000000 -0.4003780000000  0.0938200000000 1.0  -2.45
Fe     4  0.1292730000000 -0.4003780000000 -0.4061800000000 1.0  -2.45
END
