TITL LFSO-Li5FeS2O2-200920-234414-7b3efb 0.0200 163.951921 -3.34700373E+003 4.99907 5.03670 10 (C2) n - 1
REM
REM Run started: Mon, 21 Sep 2020 00:57:31 +0100 in /lustre/scratch/uccabz1/launch_tmp/launcher_2020-09-20-22-44-13-039626
REM CASTEP 20.1 from code version af48c487+ pr-geom-scf-spinfix Tue Jun 2 15:39:59 2020 +0100
REM Functional Perdew Burke Ernzerhof Relativity Koelling-Harmon Dispersion off
REM Cut-off 340.0000 eV Grid scale 1.7500 Gmax 16.5316 1/A FBSC none
REM MP grid 4 3 3 Offset 0.000 0.000 0.000 No. kpts 12 Spacing 0.07
REM Total runtime: 5111.14 s
REM Overall efficiency: 94.5 %
REM
REM
REM
REM compiler GCC version 4.9.2
REM options -cpp -iprefix /lustre/shared/ucl/apps/gcc/4.9.2/bin/../lib/gcc/x86_64-unknown-linux-gnu/4.9.2/ -mtune=corei7 -march=x86-64 -g -Og
REM COMMAND_LINE
REM seed 1640136824 1335604505 -1852839584 1553744421 -2052243136 -1154352318 581494866 144325784 699087875 -1510031252 -399781695 -2022809172
REM
REM S 3|1.8|5|6|7|30:31:32(qc=5)
REM O 2|1.5|12|13|15|20:21(qc=5)
REM Li 1|1.3|8|9|10|10U:20(qc=5)
REM Fe 3|2.2|2.0|1.0|8|9|10|40:41:32(qc=5)
REM 
CELL 1.54180    5.48488    6.66065    6.66065  104.05275   63.72593   63.72593
LATT -1
SFAC Li O  S  Fe 
Li     1 -0.1174710000000  0.4617890000000  0.1935070000000 1.0   0.03
Li     1  0.1174710000000 -0.1935070000000 -0.4617890000000 1.0   0.03
Li     1 -0.1501100000000  0.2875110000000 -0.4350090000000 1.0   0.01
Li     1  0.1501100000000  0.4350090000000 -0.2875110000000 1.0   0.01
Li     1  0.0000000000000 -0.0736990000000  0.0736990000000 1.0  -0.04
O      2 -0.0606510000000 -0.2188360000000 -0.1746230000000 1.0   0.31
O      2  0.0606510000000  0.1746230000000  0.2188360000000 1.0   0.31
S      3  0.5133980000000 -0.4662170000000  0.0262950000000 1.0   0.28
S      3 -0.5133980000000 -0.0262950000000  0.4662170000000 1.0   0.28
Fe     4  0.5000000000000 -0.0994450000000  0.0994450000000 1.0   3.79
END
