TITL LFSO-Li5FeS2O2-200921-010236-1fa1b9 -0.0780 305.328018 -6.69218326E+003 -5.89552 6.39451 20 (P2) n - 1
REM
REM Run started: Mon, 21 Sep 2020 08:32:35 +0100 in /lustre/scratch/uccabz1/launch_tmp/launcher_2020-09-21-00-02-35-158116
REM CASTEP 20.1 from code version af48c487+ pr-geom-scf-spinfix Tue Jun 2 15:39:59 2020 +0100
REM Functional Perdew Burke Ernzerhof Relativity Koelling-Harmon Dispersion off
REM Cut-off 340.0000 eV Grid scale 1.7500 Gmax 16.5316 1/A FBSC none
REM MP grid 4 3 2 Offset 0.000 0.000 0.000 No. kpts 6 Spacing 0.07
REM Total runtime: 30332.6 s
REM Overall efficiency: 98.5 %
REM
REM
REM
REM compiler GCC version 4.9.2
REM options -cpp -iprefix /lustre/shared/ucl/apps/gcc/4.9.2/bin/../lib/gcc/x86_64-unknown-linux-gnu/4.9.2/ -mtune=corei7 -march=x86-64 -g -Og
REM COMMAND_LINE
REM seed 1115002383 1411557573 163974525 -800517704 748510188 -429849488 115445317 -1834124479 -403367681 1751813090 -322883959 -594486400
REM
REM S 3|1.8|5|6|7|30:31:32(qc=5)
REM O 2|1.5|12|13|15|20:21(qc=5)
REM Li 1|1.3|8|9|10|10U:20(qc=5)
REM Fe 3|2.2|2.0|1.0|8|9|10|40:41:32(qc=5)
REM 
CELL 1.54180    5.53048    7.20678    9.33566   90.00000   90.00000  124.85774
LATT -1
SFAC Li O  S  Fe 
Li     1 -0.0818810000000  0.2121210000000 -0.5330360000000 1.0   0.00
Li     1  0.0818810000000 -0.2121210000000 -0.5330360000000 1.0   0.00
Li     1  0.5860600000000 -0.1401300000000 -0.2193900000000 1.0   0.02
Li     1 -0.5860600000000  0.1401300000000 -0.2193900000000 1.0   0.02
Li     1 -0.1890810000000  0.1527210000000  0.0742940000000 1.0   0.02
Li     1  0.1890810000000 -0.1527210000000  0.0742940000000 1.0   0.02
Li     1  0.1921510000000  0.4970680000000  0.2523270000000 1.0   0.01
Li     1 -0.1921510000000 -0.4970680000000  0.2523270000000 1.0   0.01
Li     1 -0.3920830000000 -0.0872700000000  0.3050290000000 1.0  -0.00
Li     1  0.3920830000000  0.0872700000000  0.3050290000000 1.0  -0.00
O      2 -0.1853040000000  0.2711550000000 -0.1171290000000 1.0  -0.15
O      2  0.1853040000000 -0.2711550000000 -0.1171290000000 1.0  -0.15
O      2  0.1927270000000 -0.2342250000000  0.2708810000000 1.0  -0.01
O      2 -0.1927270000000  0.2342250000000  0.2708810000000 1.0  -0.01
S      3  0.3281880000000  0.2509850000000  0.0164110000000 1.0  -0.01
S      3 -0.3281880000000 -0.2509850000000  0.0164110000000 1.0  -0.01
S      3 -0.3135120000000 -0.1828900000000 -0.4636550000000 1.0  -0.46
S      3  0.3135120000000  0.1828900000000 -0.4636550000000 1.0  -0.46
Fe     4 -0.2184230000000 -0.4907460000000 -0.0723190000000 1.0  -2.37
Fe     4  0.2184230000000  0.4907460000000 -0.0723190000000 1.0  -2.37
END
