TITL LFSO-Li3Fe3SO5-201001-211532-643cb2 -0.0421 123.420994 -5.68103701E+003 9.05254 9.91619 12 (P1) n - 1
REM
REM Run started: Thu, 01 Oct 2020 22:01:47 +0100 in /scratch/scratch/mmm0366/launch_tmp/launcher_2020-10-01-20-15-30-595668
REM CASTEP 19.11| from code version Version unavailable
REM Functional Perdew Burke Ernzerhof Relativity Koelling-Harmon Dispersion off
REM Cut-off 340.0000 eV Grid scale 1.7500 Gmax 16.5316 1/A FBSC none
REM MP grid 4 4 3 Offset 0.000 0.000 0.000 No. kpts 24 Spacing 0.07
REM Total runtime: 2831.33 s
REM Overall efficiency: 93 %
REM
REM
REM
REM compiler GCC version 4.9.2
REM options -cpp -iprefix /scratch/UCL/applications/gcc/4.9.2/bin/../lib/gcc/x86_64-unknown-linux-gnu/4.9.2/ -mtune=corei7 -march=x86-64 -g -O2
REM COMMAND_LINE
REM seed 1590844868 -679263042 1826188440 -312023917 1994401109 -1148607637 -1123562219 -1514166911 -1691231330 52610660 1882104160 -550835472
REM
REM S 3|1.8|5|6|7|30:31:32(qc=5)
REM O 2|1.5|12|13|15|20:21(qc=5)
REM Li 1|1.3|8|9|10|10U:20(qc=5)
REM Fe 3|2.2|2.0|1.0|8|9|10|40:41:32(qc=5)
REM 
CELL 1.54180    4.80725    4.80725    6.16687   90.00000   90.00000  120.00000
LATT -1
SFAC Li O  S  Fe 
Li     1 -0.3566320000000 -0.3394030000000  0.1931920000000 1.0  -0.01
Li     1  0.3394030000000 -0.0172290000000  0.1931920000000 1.0  -0.01
Li     1  0.0172290000000  0.3566320000000  0.1931920000000 1.0  -0.01
O      2 -0.0424490000000 -0.3667470000000 -0.0208880000000 1.0   0.02
O      2  0.3667470000000  0.3242980000000 -0.0208880000000 1.0   0.02
O      2 -0.3242980000000  0.0424490000000 -0.0208880000000 1.0   0.02
O      2  0.3333330000000 -0.3333330000000 -0.6112510000000 1.0   0.20
O      2 -0.3333330000000  0.3333330000000  0.3976900000000 1.0   0.24
S      3 -0.3333330000000  0.3333330000000 -0.1305000000000 1.0  -0.03
Fe     4  0.3209030000000  0.3315220000000  0.5893520000000 1.0   2.86
Fe     4 -0.3315220000000 -0.0106200000000  0.5893520000000 1.0   2.86
Fe     4  0.0106200000000 -0.3209030000000  0.5893520000000 1.0   2.86
END
