TITL LFSO-Li2Fe4S4O-200911-205759-9afd63 0.0140 523.883944 -1.10139847E+004 -27.9770 28.6334 22 (Ccc2) n - 1
REM
REM Run started: Sat, 12 Sep 2020 12:27:19 +0100 in /lustre/scratch/uccabz1/launch_tmp/launcher_2020-09-11-19-57-57-989315
REM CASTEP 20.1 from code version af48c487+ pr-geom-scf-spinfix Tue Jun 2 15:39:59 2020 +0100
REM Functional Perdew Burke Ernzerhof Relativity Koelling-Harmon Dispersion off
REM Cut-off 340.0000 eV Grid scale 1.7500 Gmax 16.5316 1/A FBSC none
REM MP grid 3 2 2 Offset 0.000 0.000 0.000 No. kpts 3 Spacing 0.07
REM Total runtime: 59149.6 s
REM Overall efficiency: 98.4545 %
REM
REM
REM
REM compiler GCC version 4.9.2
REM options -cpp -iprefix /lustre/shared/ucl/apps/gcc/4.9.2/bin/../lib/gcc/x86_64-unknown-linux-gnu/4.9.2/ -mtune=corei7 -march=x86-64 -g -Og
REM COMMAND_LINE
REM seed 2096174796 294069423 -1181982219 -1239919618 612976323 -482682974 -278258081 -1519383575 674365085 -1457754002 -611803525 -1024876524
REM
REM S 3|1.8|5|6|7|30:31:32(qc=5)
REM O 2|1.5|12|13|15|20:21(qc=5)
REM Li 1|1.3|8|9|10|10U:20(qc=5)
REM Fe 3|2.2|2.0|1.0|8|9|10|40:41:32(qc=5)
REM 
CELL 1.54180    7.65093    9.02245    8.49884   90.00000  116.75111   90.00000
LATT -1
SFAC Li O  S  Fe 
Li     1 -0.3928330000000  0.0835980000000 -0.6362110000000 1.0  -0.06
Li     1  0.3928330000000  0.0835980000000  0.6362110000000 1.0  -0.06
Li     1 -0.2433770000000 -0.4164020000000 -0.6362110000000 1.0  -0.06
Li     1  0.2433770000000 -0.4164020000000  0.6362110000000 1.0  -0.06
O      2  0.0000000000000 -0.0720970000000  0.0000000000000 1.0  -0.29
O      2  0.0000000000000  0.4279030000000  0.0000000000000 1.0  -0.29
S      3  0.2391820000000  0.1922000000000 -0.1834870000000 1.0  -0.24
S      3 -0.2391820000000  0.1922000000000  0.1834870000000 1.0  -0.24
S      3 -0.4226690000000 -0.3078000000000 -0.1834870000000 1.0  -0.24
S      3  0.4226690000000 -0.3078000000000  0.1834870000000 1.0  -0.24
S      3  0.2950760000000  0.1914340000000  0.3342310000000 1.0  -0.19
S      3 -0.2950760000000  0.1914340000000 -0.3342310000000 1.0  -0.19
S      3  0.0391550000000 -0.3085660000000  0.3342310000000 1.0  -0.19
S      3 -0.0391550000000 -0.3085660000000 -0.3342310000000 1.0  -0.19
Fe     4  0.1514670000000 -0.4179450000000  0.1613440000000 1.0  -3.09
Fe     4 -0.1514670000000 -0.4179450000000 -0.1613440000000 1.0  -3.09
Fe     4  0.0098770000000  0.0820550000000  0.1613440000000 1.0  -3.09
Fe     4 -0.0098770000000  0.0820550000000 -0.1613440000000 1.0  -3.09
Fe     4 -0.1902590000000  0.2606920000000 -0.0487950000000 1.0  -3.27
Fe     4  0.1902590000000  0.2606920000000  0.0487950000000 1.0  -3.27
Fe     4  0.1414640000000 -0.2393080000000 -0.0487950000000 1.0  -3.27
Fe     4 -0.1414640000000 -0.2393080000000  0.0487950000000 1.0  -3.27
END
