TITL LFSO-Li4Fe2SO3-200910-224716-c36713 0.0846 155.159068 -4.13964453E+003 8.23212 8.30569 10 (Fmm2) n - 1
REM
REM Run started: Thu, 10 Sep 2020 23:38:29 +0100 in /lustre/scratch/uccabz1/launch_tmp/launcher_2020-09-10-21-47-14-772153
REM CASTEP 20.1 from code version af48c487+ pr-geom-scf-spinfix Tue Jun 2 15:39:59 2020 +0100
REM Functional Perdew Burke Ernzerhof Relativity Koelling-Harmon Dispersion off
REM Cut-off 340.0000 eV Grid scale 1.7500 Gmax 16.5316 1/A FBSC none
REM MP grid 4 4 3 Offset 0.000 0.000 0.000 No. kpts 16 Spacing 0.07
REM Total runtime: 4281.2 s
REM Overall efficiency: 95.1667 %
REM
REM
REM
REM compiler GCC version 4.9.2
REM options -cpp -iprefix /lustre/shared/ucl/apps/gcc/4.9.2/bin/../lib/gcc/x86_64-unknown-linux-gnu/4.9.2/ -mtune=corei7 -march=x86-64 -g -Og
REM COMMAND_LINE
REM seed 1229030596 -230770337 -1849826130 142370462 1808550653 -1404550462 1064795137 1034084379 972658481 885586007 -1183430855 -494292842
REM
REM S 3|1.8|5|6|7|30:31:32(qc=5)
REM O 2|1.5|12|13|15|20:21(qc=5)
REM Li 1|1.3|8|9|10|10U:20(qc=5)
REM Fe 3|2.2|2.0|1.0|8|9|10|40:41:32(qc=5)
REM 
CELL 1.54180    5.46057    5.46057    6.42017  104.72206  104.72206  113.72963
LATT -1
SFAC Li O  S  Fe 
Li     1 -0.3880900000000 -0.1525210000000  0.0281130000000 1.0   0.00
Li     1  0.4162020000000  0.1806340000000  0.0281130000000 1.0   0.00
Li     1  0.1806340000000  0.4162020000000  0.0281130000000 1.0   0.00
Li     1 -0.1525210000000 -0.3880900000000  0.0281130000000 1.0   0.00
O      2 -0.0985340000000  0.4014660000000 -0.1970670000000 1.0   0.44
O      2  0.4014660000000 -0.0985340000000 -0.1970670000000 1.0   0.44
O      2  0.5657940000000  0.5657940000000  0.1315870000000 1.0   0.09
S      3  0.1737510000000  0.1737510000000  0.3475020000000 1.0   0.12
Fe     4  0.2494860000000 -0.2505140000000  0.4989720000000 1.0   3.56
Fe     4 -0.2505140000000  0.2494860000000  0.4989720000000 1.0   3.56
END
