TITL LFSO-Li3Fe3SO5-201001-224549-367ed6 -0.0558 144.539088 -5.68301314E+003 11.5101 11.5901 12 (P1) n - 1
REM
REM Run started: Thu, 01 Oct 2020 23:40:13 +0100 in /scratch/scratch/mmm0366/launch_tmp/launcher_2020-10-01-21-45-47-967444
REM CASTEP 19.11| from code version Version unavailable
REM Functional Perdew Burke Ernzerhof Relativity Koelling-Harmon Dispersion off
REM Cut-off 340.0000 eV Grid scale 1.7500 Gmax 16.5316 1/A FBSC none
REM MP grid 3 5 2 Offset 0.000 0.000 0.000 No. kpts 10 Spacing 0.07
REM Total runtime: 3608.99 s
REM Overall efficiency: 76.875 %
REM
REM
REM
REM compiler GCC version 4.9.2
REM options -cpp -iprefix /scratch/UCL/applications/gcc/4.9.2/bin/../lib/gcc/x86_64-unknown-linux-gnu/4.9.2/ -mtune=corei7 -march=x86-64 -g -O2
REM COMMAND_LINE
REM seed 573213351 432710695 -1702877229 611972342 -1462062736 1090414716 -1467062885 1645883421 1499451467 -40425712 -508567018 1167213573
REM
REM S 3|1.8|5|6|7|30:31:32(qc=5)
REM O 2|1.5|12|13|15|20:21(qc=5)
REM Li 1|1.3|8|9|10|10U:20(qc=5)
REM Fe 3|2.2|2.0|1.0|8|9|10|40:41:32(qc=5)
REM 
CELL 1.54180    5.73721    3.46522    7.52436  104.93035   90.00000   90.00000
LATT -1
SFAC Li O  S  Fe 
Li     1  0.3252980000000 -0.3595140000000 -0.1646870000000 1.0   0.00
Li     1  0.3252980000000  0.3595140000000  0.1646870000000 1.0   0.00
Li     1 -0.4486630000000 -0.5000000000000 -0.5000000000000 1.0  -0.04
O      2 -0.3227520000000 -0.6494500000000  0.1483860000000 1.0   0.45
O      2 -0.3227520000000  0.6494500000000 -0.1483860000000 1.0   0.45
O      2  0.1529620000000 -0.1298600000000  0.2160970000000 1.0   0.22
O      2  0.1529620000000  0.1298600000000 -0.2160970000000 1.0   0.22
O      2  0.4655120000000 -0.0000000000000 -0.5000000000000 1.0   0.39
S      3 -0.0522600000000  0.5000000000000  0.5000000000000 1.0   0.29
Fe     4 -0.1685690000000 -0.1360090000000  0.1570480000000 1.0   3.81
Fe     4 -0.1685690000000  0.1360090000000 -0.1570480000000 1.0   3.81
Fe     4  0.1639470000000 -0.0000000000000 -0.5000000000000 1.0   1.88
END
