TITL LFSO-Li5FeSO3-200910-062543-70c5f8 0.0263 144.706087 -3.47543051E+003 3.35595 3.51460 10 (C2/m) n - 1
REM
REM Run started: Thu, 10 Sep 2020 08:06:19 +0100 in /lustre/scratch/uccabz1/launch_tmp/launcher_2020-09-10-05-25-41-709475
REM CASTEP 20.1 from code version af48c487+ pr-geom-scf-spinfix Tue Jun 2 15:39:59 2020 +0100
REM Functional Perdew Burke Ernzerhof Relativity Koelling-Harmon Dispersion off
REM Cut-off 340.0000 eV Grid scale 1.7500 Gmax 16.5316 1/A FBSC none
REM MP grid 5 3 4 Offset 0.000 0.000 0.000 No. kpts 30 Spacing 0.07
REM Total runtime: 6504.88 s
REM Overall efficiency: 95.4286 %
REM
REM
REM
REM compiler GCC version 4.9.2
REM options -cpp -iprefix /lustre/shared/ucl/apps/gcc/4.9.2/bin/../lib/gcc/x86_64-unknown-linux-gnu/4.9.2/ -mtune=corei7 -march=x86-64 -g -Og
REM COMMAND_LINE
REM seed 628367726 1572264349 -98143878 -2003032940 -946393697 1951073930 613987900 -1846778485 -736312614 -1042656032 -1089460714 1322678467
REM
REM S 3|1.8|5|6|7|30:31:32(qc=5)
REM O 2|1.5|12|13|15|20:21(qc=5)
REM Li 1|1.3|8|9|10|10U:20(qc=5)
REM Fe 3|2.2|2.0|1.0|8|9|10|40:41:32(qc=5)
REM 
CELL 1.54180    3.99239    9.83891    6.70466  137.20063  113.55721   89.99999
LATT -1
SFAC Li O  S  Fe 
Li     1 -0.2699200000000 -0.1819760000000  0.3445970000000 1.0  -0.05
Li     1  0.2699200000000 -0.5265720000000 -0.3445970000000 1.0  -0.05
Li     1  0.2699200000000  0.1819760000000 -0.3445970000000 1.0  -0.05
Li     1 -0.2699200000000  0.5265720000000  0.3445970000000 1.0  -0.05
Li     1  0.0000000000000 -0.5000000000000  0.0000000000000 1.0  -0.03
O      2 -0.5000000000000  0.0000000000000  0.5000000000000 1.0   0.51
O      2  0.5000000000000 -0.5000000000000 -0.5000000000000 1.0   0.51
O      2  0.5000000000000 -0.5000000000000  0.0000000000000 1.0   0.01
S      3  0.0000000000000  0.0000000000000  0.0000000000000 1.0   0.05
Fe     4  0.5000000000000  0.0000000000000  0.0000000000000 1.0   2.50
END
