TITL LFSO-Li4Fe3SO4-200928-034823-15e4d3 0.1739 303.097976 -5.44210072E+003 9.85033 10.1616 12 (Cmm2) n - 1
REM
REM Run started: Mon, 28 Sep 2020 11:44:54 +0100 in /scratch/scratch/uccabz1/launch_tmp/launcher_2020-09-28-02-48-20-842436
REM CASTEP 19.11| from code version Version unavailable
REM Functional Perdew Burke Ernzerhof Relativity Koelling-Harmon Dispersion off
REM Cut-off 340.0000 eV Grid scale 1.7500 Gmax 16.5316 1/A FBSC none
REM MP grid 4 3 2 Offset 0.000 0.000 0.000 No. kpts 6 Spacing 0.07
REM Total runtime: 31885.1 s
REM Overall efficiency: 97.4615 %
REM
REM
REM
REM compiler GCC version 4.9.2
REM options -cpp -iprefix /scratch/UCL/applications/gcc/4.9.2/bin/../lib/gcc/x86_64-unknown-linux-gnu/4.9.2/ -mtune=corei7 -march=x86-64 -g -O2
REM COMMAND_LINE
REM seed 1080442666 -819540314 -418119742 -1375980532 2147366611 -250991652 -605097003 -751851996 489251942 323104477 -1822590423 -921364866
REM
REM S 3|1.8|5|6|7|30:31:32(qc=5)
REM O 2|1.5|12|13|15|20:21(qc=5)
REM Li 1|1.3|8|9|10|10U:20(qc=5)
REM Fe 3|2.2|2.0|1.0|8|9|10|40:41:32(qc=5)
REM 
CELL 1.54180    4.02431    7.51116   10.70753  110.53267   90.00000   90.00000
LATT -1
SFAC Li O  S  Fe 
Li     1 -0.0930000000000 -0.1545300000000  0.1899720000000 1.0  -0.03
Li     1 -0.0930000000000  0.1545300000000 -0.1899720000000 1.0  -0.03
Li     1 -0.0930000000000 -0.3445020000000 -0.1899720000000 1.0  -0.03
Li     1 -0.0930000000000  0.3445020000000  0.1899720000000 1.0  -0.03
O      2  0.4110580000000  0.3077220000000  0.1719240000000 1.0   0.33
O      2  0.4110580000000 -0.3077220000000 -0.1719240000000 1.0   0.33
O      2  0.4110580000000  0.1357980000000 -0.1719240000000 1.0   0.33
O      2  0.4110580000000 -0.1357980000000  0.1719240000000 1.0   0.33
S      3 -0.0754740000000  0.5000000000000  0.0000000000000 1.0   0.28
Fe     4 -0.6015850000000  0.1722770000000  0.0000000000000 1.0   2.80
Fe     4 -0.6015850000000 -0.1722770000000  0.0000000000000 1.0   2.80
Fe     4  0.4241160000000  0.5000000000000  0.0000000000000 1.0   2.76
END
