TITL LFSO-LiFe3S3O2-200909-155457-d29deb -0.0346 129.410216 -4.57790543E+003 0.496533E-03 0.780789E-02 9 (Amm2) n - 1
REM
REM Run started: Wed, 09 Sep 2020 16:43:02 +0100 in /lustre/scratch/uccabz1/launch_tmp/launcher_2020-09-09-14-54-55-764204
REM CASTEP 20.1 from code version af48c487+ pr-geom-scf-spinfix Tue Jun 2 15:39:59 2020 +0100
REM Functional Perdew Burke Ernzerhof Relativity Koelling-Harmon Dispersion off
REM Cut-off 340.0000 eV Grid scale 1.7500 Gmax 16.5316 1/A FBSC none
REM MP grid 5 3 3 Offset 0.000 0.000 0.000 No. kpts 12 Spacing 0.07
REM Total runtime: 3799.06 s
REM Overall efficiency: 94.5 %
REM
REM
REM
REM compiler GCC version 4.9.2
REM options -cpp -iprefix /lustre/shared/ucl/apps/gcc/4.9.2/bin/../lib/gcc/x86_64-unknown-linux-gnu/4.9.2/ -mtune=corei7 -march=x86-64 -g -Og
REM COMMAND_LINE
REM seed 831602968 657943384 526257561 331189233 1221913862 -2084318204 984777070 -739449360 1585368135 -446899221 -1451920292 879942916
REM
REM S 3|1.8|5|6|7|30:31:32(qc=5)
REM O 2|1.5|12|13|15|20:21(qc=5)
REM Li 1|1.3|8|9|10|10U:20(qc=5)
REM Fe 3|2.2|2.0|1.0|8|9|10|40:41:32(qc=5)
REM 
CELL 1.54180    3.29522    6.26999    6.26999   87.39440   90.00000   90.00000
LATT -1
SFAC Li O  S  Fe 
Li     1 -0.5000000000000 -0.1261440000000  0.1261440000000 1.0
O      2  0.5000000000000 -0.1475260000000  0.4253230000000 1.0
O      2  0.5000000000000 -0.4253230000000  0.1475260000000 1.0
S      3  0.0000000000000 -0.3833610000000 -0.2856010000000 1.0
S      3 -0.0000000000000  0.2856010000000  0.3833610000000 1.0
S      3  0.5000000000000  0.1571140000000 -0.1571140000000 1.0
Fe     4 -0.5000000000000  0.1083790000000 -0.4865820000000 1.0
Fe     4 -0.5000000000000  0.4865820000000 -0.1083790000000 1.0
Fe     4 -0.5000000000000  0.5485020000000 -0.5485020000000 1.0
END
