TITL LFSO-Li2Fe4S2O3-200912-100645-f47952 0.0841 338.925792 -1.15429594E+004 -21.9853 23.0033 22 (P3) n - 1
REM
REM Run started: Mon, 14 Sep 2020 03:47:29 +0100 in /lustre/scratch/uccabz1/launch_tmp/launcher_2020-09-14-00-49-29-134282
REM CASTEP 20.1 from code version af48c487+ pr-geom-scf-spinfix Tue Jun 2 15:39:59 2020 +0100
REM Functional Perdew Burke Ernzerhof Relativity Koelling-Harmon Dispersion off
REM Cut-off 340.0000 eV Grid scale 1.7500 Gmax 16.5316 1/A FBSC none
REM MP grid 3 3 2 Offset 0.000 0.000 0.000 No. kpts 5 Spacing 0.07
REM Total runtime: 59556 s
REM Overall efficiency: 94.0833 %
REM
REM
REM
REM compiler GCC version 4.9.2
REM options -cpp -iprefix /lustre/shared/ucl/apps/gcc/4.9.2/bin/../lib/gcc/x86_64-unknown-linux-gnu/4.9.2/ -mtune=corei7 -march=x86-64 -g -Og
REM COMMAND_LINE
REM seed -822169382 2143257843 -1131743376 -1441687244 -1315250582 1750408299 -379172478 -922879416 817842471 156487494 1519616425 1803609405
REM
REM S 3|1.8|5|6|7|30:31:32(qc=5)
REM O 2|1.5|12|13|15|20:21(qc=5)
REM Li 1|1.3|8|9|10|10U:20(qc=5)
REM Fe 3|2.2|2.0|1.0|8|9|10|40:41:32(qc=5)
REM 
CELL 1.54180    7.31489    7.31489    7.31406   90.00000   90.00000  120.00000
LATT -1
SFAC Li O  S  Fe 
Li     1 -0.1941570000000 -0.2620380000000  0.1648570000000 1.0   0.11
Li     1 -0.0678810000000  0.1941570000000  0.1648570000000 1.0   0.11
Li     1  0.2620380000000  0.0678810000000  0.1648570000000 1.0   0.11
Li     1  0.3333330000000 -0.3333330000000  0.5142940000000 1.0   0.06
O      2 -0.4523710000000 -0.3862660000000 -0.3772910000000 1.0  -0.46
O      2  0.0661060000000  0.4523710000000 -0.3772910000000 1.0  -0.46
O      2  0.3862660000000 -0.0661060000000 -0.3772910000000 1.0  -0.46
O      2 -0.3029980000000  0.0742050000000  0.2992840000000 1.0  -0.25
O      2  0.3772030000000  0.3029980000000  0.2992840000000 1.0  -0.25
O      2 -0.0742050000000 -0.3772030000000  0.2992840000000 1.0  -0.25
S      3 -0.1056560000000 -0.3026340000000 -0.1496480000000 1.0  -0.11
S      3 -0.1969790000000  0.1056560000000 -0.1496480000000 1.0  -0.11
S      3  0.3026340000000  0.1969790000000 -0.1496480000000 1.0  -0.11
S      3  0.3333330000000 -0.3333330000000 -0.0838710000000 1.0  -0.01
Fe     4  0.4597200000000  0.0030140000000 -0.1593090000000 1.0  -1.75
Fe     4 -0.4567070000000 -0.4597200000000 -0.1593090000000 1.0  -1.75
Fe     4 -0.0030140000000  0.4567070000000 -0.1593090000000 1.0  -1.75
Fe     4 -0.4710240000000 -0.1288440000000  0.1502670000000 1.0  -2.57
Fe     4  0.3421800000000  0.4710240000000  0.1502670000000 1.0  -2.57
Fe     4  0.1288440000000 -0.3421800000000  0.1502670000000 1.0  -2.57
Fe     4 -0.3333330000000  0.3333330000000  0.1856370000000 1.0  -3.48
Fe     4 -0.0000000000000 -0.0000000000000 -0.3233710000000 1.0  -3.44
END
