TITL LFSO-Li2Fe2S2O-200913-123115-0176cf 0.0953 340.421869 -9.51853622E+003 21.9927 22.3878 21 (C2/m) n - 1
REM
REM Run started: Mon, 14 Sep 2020 08:22:18 +0100 in /lustre/scratch/uccabz1/launch_tmp/launcher_2020-09-14-06-55-46-781983
REM CASTEP 20.1 from code version af48c487+ pr-geom-scf-spinfix Tue Jun 2 15:39:59 2020 +0100
REM Functional Perdew Burke Ernzerhof Relativity Koelling-Harmon Dispersion off
REM Cut-off 340.0000 eV Grid scale 1.7500 Gmax 16.5316 1/A FBSC none
REM MP grid 2 3 3 Offset 0.000 0.000 0.000 No. kpts 6 Spacing 0.07
REM Total runtime: 70634.6 s
REM Overall efficiency: 87.2857 %
REM
REM
REM
REM compiler GCC version 4.9.2
REM options -cpp -iprefix /lustre/shared/ucl/apps/gcc/4.9.2/bin/../lib/gcc/x86_64-unknown-linux-gnu/4.9.2/ -mtune=corei7 -march=x86-64 -g -Og
REM COMMAND_LINE
REM seed 1557739828 552055352 -403266845 -2079147599 2041093282 -1382268708 1279706400 -1867082136 -1408074023 -1538421262 2110030918 638932028
REM
REM S 3|1.8|5|6|7|30:31:32(qc=5)
REM O 2|1.5|12|13|15|20:21(qc=5)
REM Li 1|1.3|8|9|10|10U:20(qc=5)
REM Fe 3|2.2|2.0|1.0|8|9|10|40:41:32(qc=5)
REM 
CELL 1.54180    9.01268    6.86149    6.86149  107.40535   71.30783   71.30783
LATT -1
SFAC Li O  S  Fe 
Li     1  0.1719120000000  0.2773890000000  0.5235470000000 1.0  -0.04
Li     1 -0.1719120000000 -0.5235470000000 -0.2773890000000 1.0  -0.04
Li     1 -0.1719120000000 -0.2773890000000 -0.5235470000000 1.0  -0.04
Li     1  0.1719120000000  0.5235470000000  0.2773890000000 1.0  -0.04
Li     1  0.5000000000000  0.0000000000000 -0.5000000000000 1.0   0.06
Li     1 -0.5000000000000  0.5000000000000  0.0000000000000 1.0   0.06
O      2 -0.0786760000000 -0.2917500000000 -0.2917500000000 1.0   0.28
O      2  0.0786760000000  0.2917500000000  0.2917500000000 1.0   0.28
O      2  0.0000000000000  0.0000000000000  0.0000000000000 1.0   0.41
S      3  0.2412540000000 -0.6302730000000 -0.1481050000000 1.0   0.30
S      3 -0.2412540000000  0.1481050000000  0.6302730000000 1.0   0.30
S      3 -0.2412540000000  0.6302730000000  0.1481050000000 1.0   0.30
S      3  0.2412540000000 -0.1481050000000 -0.6302730000000 1.0   0.30
S      3 -0.4569390000000 -0.2405620000000 -0.2405620000000 1.0   0.14
S      3  0.4569390000000  0.2405620000000  0.2405620000000 1.0   0.14
Fe     4  0.0068900000000  0.0301310000000  0.2962520000000 1.0   3.43
Fe     4 -0.0068900000000 -0.2962520000000 -0.0301310000000 1.0   3.43
Fe     4 -0.0068900000000 -0.0301310000000 -0.2962520000000 1.0   3.43
Fe     4  0.0068900000000  0.2962520000000  0.0301310000000 1.0   3.43
Fe     4  0.3231190000000  0.0677180000000  0.0677180000000 1.0   2.94
Fe     4 -0.3231190000000 -0.0677180000000 -0.0677180000000 1.0   2.94
END
