TITL LFSO-Li4Fe2S3O2-200911-063123-1a0546 -0.0597 175.063673 -4.30684730E+003 6.98686 7.25149 11 (Cm) n - 1
REM
REM Run started: Fri, 11 Sep 2020 07:43:35 +0100 in /lustre/scratch/uccabz1/launch_tmp/launcher_2020-09-11-05-31-21-322130
REM CASTEP 20.1 from code version af48c487+ pr-geom-scf-spinfix Tue Jun 2 15:39:59 2020 +0100
REM Functional Perdew Burke Ernzerhof Relativity Koelling-Harmon Dispersion off
REM Cut-off 340.0000 eV Grid scale 1.7500 Gmax 16.5316 1/A FBSC none
REM MP grid 4 4 2 Offset 0.000 0.000 0.000 No. kpts 10 Spacing 0.07
REM Total runtime: 4400.22 s
REM Overall efficiency: 74.8571 %
REM
REM
REM
REM compiler GCC version 4.9.2
REM options -cpp -iprefix /lustre/shared/ucl/apps/gcc/4.9.2/bin/../lib/gcc/x86_64-unknown-linux-gnu/4.9.2/ -mtune=corei7 -march=x86-64 -g -Og
REM COMMAND_LINE
REM seed -2135861502 -1700363082 790035758 -342373804 342988928 -987122874 485539436 627018677 1901999594 1232586143 -210189577 -76371120
REM
REM S 3|1.8|5|6|7|30:31:32(qc=5)
REM O 2|1.5|12|13|15|20:21(qc=5)
REM Li 1|1.3|8|9|10|10U:20(qc=5)
REM Fe 3|2.2|2.0|1.0|8|9|10|40:41:32(qc=5)
REM 
CELL 1.54180    3.76747    3.76747   12.35132   87.84206   87.84206   89.81989
LATT -1
SFAC Li O  S  Fe 
Li     1  0.2790920000000 -0.1797340000000  0.0421000000000 1.0   0.01
Li     1 -0.1797340000000  0.2790920000000  0.0421000000000 1.0   0.01
Li     1  0.4745030000000 -0.0249780000000  0.4925390000000 1.0  -0.07
Li     1 -0.0249780000000  0.4745030000000  0.4925390000000 1.0  -0.07
O      2  0.1873730000000 -0.5503210000000 -0.0437850000000 1.0   0.36
O      2 -0.5503210000000  0.1873730000000 -0.0437850000000 1.0   0.36
S      3  0.2089620000000 -0.2915830000000 -0.3474190000000 1.0   0.01
S      3 -0.2915830000000  0.2089620000000 -0.3474190000000 1.0   0.01
S      3 -0.2464580000000 -0.2464580000000  0.1748170000000 1.0   0.20
Fe     4 -0.2719520000000  0.2280290000000  0.2977630000000 1.0   3.08
Fe     4  0.2280290000000 -0.2719520000000  0.2977630000000 1.0   3.08
END
