TITL LFSO-Li4Fe2S3O2-200911-050629-794482 0.0127 193.730279 -4.31358012E+003 7.65633 7.77636 11 (C2/m) n - 1
REM
REM Run started: Fri, 11 Sep 2020 07:33:01 +0100 in /lustre/scratch/uccabz1/launch_tmp/launcher_2020-09-11-04-06-27-608446
REM CASTEP 20.1 from code version af48c487+ pr-geom-scf-spinfix Tue Jun 2 15:39:59 2020 +0100
REM Functional Perdew Burke Ernzerhof Relativity Koelling-Harmon Dispersion off
REM Cut-off 340.0000 eV Grid scale 1.7500 Gmax 16.5316 1/A FBSC none
REM MP grid 5 3 2 Offset 0.000 0.000 0.000 No. kpts 15 Spacing 0.07
REM Total runtime: 11239.4 s
REM Overall efficiency: 97 %
REM
REM
REM
REM compiler GCC version 4.9.2
REM options -cpp -iprefix /lustre/shared/ucl/apps/gcc/4.9.2/bin/../lib/gcc/x86_64-unknown-linux-gnu/4.9.2/ -mtune=corei7 -march=x86-64 -g -Og
REM COMMAND_LINE
REM seed 1808768935 2013260615 442820175 -248590812 2136830833 444929986 -114241175 13347745 -612951953 -2084372272 174595132 140627890
REM
REM S 3|1.8|5|6|7|30:31:32(qc=5)
REM O 2|1.5|12|13|15|20:21(qc=5)
REM Li 1|1.3|8|9|10|10U:20(qc=5)
REM Fe 3|2.2|2.0|1.0|8|9|10|40:41:32(qc=5)
REM 
CELL 1.54180    3.43372    6.23478    9.58048  108.98920   92.53087   90.00000
LATT -1
SFAC Li O  S  Fe 
Li     1  0.2704810000000  0.3497690000000  0.1886430000000 1.0   0.02
Li     1 -0.2704810000000  0.1611260000000 -0.1886430000000 1.0   0.02
Li     1 -0.2704810000000 -0.3497690000000 -0.1886430000000 1.0   0.02
Li     1  0.2704810000000 -0.1611260000000  0.1886430000000 1.0   0.02
O      2 -0.4384530000000 -0.1351620000000 -0.2703240000000 1.0   0.36
O      2  0.4384530000000  0.1351620000000  0.2703240000000 1.0   0.36
S      3  0.0017240000000 -0.3096790000000  0.3806420000000 1.0   0.17
S      3 -0.0017240000000  0.3096790000000 -0.3806420000000 1.0   0.17
S      3 -0.5000000000000 -0.5000000000000 -0.0000000000000 1.0   0.01
Fe     4 -0.5220350000000  0.2313540000000 -0.5372920000000 1.0   3.25
Fe     4  0.5220350000000 -0.2313540000000  0.5372920000000 1.0   3.25
END
