TITL LFSO-Li2Fe2SO2-200913-005828-6e1070 0.0182 307.404132 -9.91720977E+003 -17.6640 18.2368 21 (Fmm2) n - 1
REM
REM Run started: Sun, 13 Sep 2020 08:05:30 +0100 in /lustre/scratch/uccabz1/launch_tmp/launcher_2020-09-12-23-58-26-858299
REM CASTEP 20.1 from code version af48c487+ pr-geom-scf-spinfix Tue Jun 2 15:39:59 2020 +0100
REM Functional Perdew Burke Ernzerhof Relativity Koelling-Harmon Dispersion off
REM Cut-off 340.0000 eV Grid scale 1.7500 Gmax 16.5316 1/A FBSC none
REM MP grid 3 3 3 Offset 0.000 0.000 0.000 No. kpts 8 Spacing 0.07
REM Total runtime: 26322.1 s
REM Overall efficiency: 98.5714 %
REM
REM
REM
REM compiler GCC version 4.9.2
REM options -cpp -iprefix /lustre/shared/ucl/apps/gcc/4.9.2/bin/../lib/gcc/x86_64-unknown-linux-gnu/4.9.2/ -mtune=corei7 -march=x86-64 -g -Og
REM COMMAND_LINE
REM seed -352126392 -477198845 -379807064 2005072699 2037976233 -2061847120 -1105797965 -2051895762 1929573574 -2141625898 -99152891 -5870473
REM
REM S 3|1.8|5|6|7|30:31:32(qc=5)
REM O 2|1.5|12|13|15|20:21(qc=5)
REM Li 1|1.3|8|9|10|10U:20(qc=5)
REM Fe 3|2.2|2.0|1.0|8|9|10|40:41:32(qc=5)
REM 
CELL 1.54180    7.80561    7.80561    7.11214  115.47591  115.47591  102.48389
LATT -1
SFAC Li O  S  Fe 
Li     1 -0.1237500000000  0.2526960000000 -0.1614090000000 1.0   0.02
Li     1 -0.0376590000000 -0.4141060000000 -0.1614090000000 1.0   0.02
Li     1 -0.4141060000000 -0.0376590000000 -0.1614090000000 1.0   0.02
Li     1  0.2526960000000 -0.1237500000000 -0.1614090000000 1.0   0.02
Li     1 -0.1867450000000 -0.1867450000000  0.1346570000000 1.0  -0.01
Li     1  0.3214030000000  0.3214030000000  0.1346570000000 1.0  -0.01
O      2  0.1681910000000  0.4713440000000  0.0091260000000 1.0  -0.15
O      2 -0.1590660000000 -0.4622190000000  0.0091260000000 1.0  -0.15
O      2 -0.4622190000000 -0.1590660000000  0.0091260000000 1.0  -0.15
O      2  0.4713440000000  0.1681910000000  0.0091260000000 1.0  -0.15
O      2  0.0405270000000  0.5737400000000 -0.3857340000000 1.0  -0.15
O      2  0.5737400000000  0.0405270000000 -0.3857340000000 1.0  -0.15
S      3 -0.0180760000000  0.1992220000000  0.1811460000000 1.0  -0.12
S      3  0.1992220000000 -0.0180760000000  0.1811460000000 1.0  -0.12
S      3 -0.3428620000000 -0.3428620000000  0.3142770000000 1.0  -0.01
Fe     4 -0.4558340000000  0.0200460000000  0.3195830000000 1.0  -2.99
Fe     4 -0.2245830000000  0.2995360000000  0.3195830000000 1.0  -2.99
Fe     4  0.2995360000000 -0.2245830000000  0.3195830000000 1.0  -2.99
Fe     4  0.0200460000000 -0.4558340000000  0.3195830000000 1.0  -2.99
Fe     4 -0.3723220000000  0.3780780000000  0.0057560000000 1.0  -2.30
Fe     4  0.3780780000000 -0.3723220000000  0.0057560000000 1.0  -2.30
END
