TITL LFSO-Li2Fe2S2O-200913-125903-947e7b 0.0445 490.921299 -6.34399854E+003 8.09486 8.89174 14 (Pma2) n - 1
REM
REM Run started: Sun, 13 Sep 2020 16:22:09 +0100 in /lustre/scratch/uccabz1/launch_tmp/launcher_2020-09-13-11-59-01-518724
REM CASTEP 20.1 from code version af48c487+ pr-geom-scf-spinfix Tue Jun 2 15:39:59 2020 +0100
REM Functional Perdew Burke Ernzerhof Relativity Koelling-Harmon Dispersion off
REM Cut-off 340.0000 eV Grid scale 1.7500 Gmax 16.5316 1/A FBSC none
REM MP grid 4 2 2 Offset 0.000 0.000 0.000 No. kpts 2 Spacing 0.07
REM Total runtime: 14334.4 s
REM Overall efficiency: 89.4167 %
REM
REM
REM
REM compiler GCC version 4.9.2
REM options -cpp -iprefix /lustre/shared/ucl/apps/gcc/4.9.2/bin/../lib/gcc/x86_64-unknown-linux-gnu/4.9.2/ -mtune=corei7 -march=x86-64 -g -Og
REM COMMAND_LINE
REM seed -1602074523 -2001682944 1193778851 -1548305113 -1690681577 375693728 1877689582 295134348 2047023109 569117911 1998773938 -1418700091
REM
REM S 3|1.8|5|6|7|30:31:32(qc=5)
REM O 2|1.5|12|13|15|20:21(qc=5)
REM Li 1|1.3|8|9|10|10U:20(qc=5)
REM Fe 3|2.2|2.0|1.0|8|9|10|40:41:32(qc=5)
REM 
CELL 1.54180    4.47909   11.24468    9.74710   90.00000   90.00000   90.00000
LATT -1
SFAC Li O  S  Fe 
Li     1  0.0164410000000 -0.3436780000000 -0.0965210000000 1.0  -0.01
Li     1  0.0164410000000  0.3436780000000  0.0965210000000 1.0  -0.01
Li     1  0.0164410000000  0.3436780000000  0.4034790000000 1.0  -0.01
Li     1  0.0164410000000 -0.3436780000000 -0.4034790000000 1.0  -0.01
O      2  0.2332600000000 -0.3936110000000 -0.2500000000000 1.0   0.14
O      2  0.2332600000000  0.3936110000000  0.2500000000000 1.0   0.14
S      3 -0.4798270000000  0.3459540000000 -0.4705110000000 1.0   0.06
S      3 -0.4798270000000 -0.3459540000000  0.4705110000000 1.0   0.06
S      3 -0.4798270000000 -0.3459540000000  0.0294890000000 1.0   0.06
S      3 -0.4798270000000  0.3459540000000 -0.0294890000000 1.0   0.06
Fe     4  0.4379120000000  0.5154910000000 -0.3744710000000 1.0   1.91
Fe     4  0.4379120000000 -0.5154910000000  0.3744710000000 1.0   1.91
Fe     4  0.4379120000000 -0.5154910000000  0.1255290000000 1.0   1.91
Fe     4  0.4379120000000  0.5154910000000 -0.1255290000000 1.0   1.91
END
