TITL LFSO-LiFe3S4O-200909-101749-22b08a -0.0546 277.774846 -8.88569144E+003 2.23427 8.58094 18 (P2/c) n - 1
REM
REM Run started: Wed, 09 Sep 2020 15:36:54 +0100 in /lustre/scratch/uccabz1/launch_tmp/launcher_2020-09-09-09-17-47-494356
REM CASTEP 20.1 from code version af48c487+ pr-geom-scf-spinfix Tue Jun 2 15:39:59 2020 +0100
REM Functional Perdew Burke Ernzerhof Relativity Koelling-Harmon Dispersion off
REM Cut-off 340.0000 eV Grid scale 1.7500 Gmax 16.5316 1/A FBSC none
REM MP grid 3 2 3 Offset 0.000 0.000 0.000 No. kpts 5 Spacing 0.07
REM Total runtime: 19589.9 s
REM Overall efficiency: 80.7143 %
REM
REM
REM
REM compiler GCC version 4.9.2
REM options -cpp -iprefix /lustre/shared/ucl/apps/gcc/4.9.2/bin/../lib/gcc/x86_64-unknown-linux-gnu/4.9.2/ -mtune=corei7 -march=x86-64 -g -Og
REM COMMAND_LINE
REM seed -1820822451 -1860804566 1633864495 1108856081 1541871046 762843745 -2126291103 -292821478 -996225017 1613666628 -910219932 -1124103533
REM
REM S 3|1.8|5|6|7|30:31:32(qc=5)
REM O 2|1.5|12|13|15|20:21(qc=5)
REM Li 1|1.3|8|9|10|10U:20(qc=5)
REM Fe 3|2.2|2.0|1.0|8|9|10|40:41:32(qc=5)
REM 
CELL 1.54180    6.49130    7.54473    6.56052   90.00000   59.82899   90.00000
LATT -1
SFAC Li O  S  Fe 
Li     1  0.5000000000000 -0.2113860000000 -0.2500000000000 1.0   0.00
Li     1  0.5000000000000  0.2113860000000  0.2500000000000 1.0   0.00
O      2  0.0000000000000 -0.2079020000000 -0.2500000000000 1.0   0.04
O      2  0.0000000000000  0.2079020000000  0.2500000000000 1.0   0.04
S      3  0.2724230000000 -0.3858890000000  0.0872390000000 1.0  -0.01
S      3 -0.2724230000000 -0.3858890000000  0.4127610000000 1.0  -0.01
S      3 -0.2724230000000  0.3858890000000 -0.0872390000000 1.0  -0.01
S      3  0.2724230000000  0.3858890000000 -0.4127610000000 1.0  -0.01
S      3  0.2376200000000 -0.0776560000000  0.5238470000000 1.0   0.02
S      3 -0.2376200000000 -0.0776560000000 -0.0238470000000 1.0   0.02
S      3 -0.2376200000000  0.0776560000000 -0.5238470000000 1.0   0.02
S      3  0.2376200000000  0.0776560000000  0.0238470000000 1.0   0.02
Fe     4 -0.3841780000000 -0.1219300000000  0.3496570000000 1.0  -0.75
Fe     4  0.3841780000000 -0.1219300000000  0.1503430000000 1.0  -0.75
Fe     4  0.3841780000000  0.1219300000000 -0.3496570000000 1.0  -0.75
Fe     4 -0.3841780000000  0.1219300000000 -0.1503430000000 1.0  -0.75
Fe     4  0.5000000000000  0.4412070000000 -0.2500000000000 1.0   2.58
Fe     4  0.5000000000000 -0.4412070000000  0.2500000000000 1.0   2.58
END
