TITL LFSO-Li3FeSO2-200911-155414-c1a368 -0.2016 338.271698 -5.28534375E+003 1.30036 2.18856 14 (P2/m) n - 1
REM
REM Run started: Fri, 11 Sep 2020 21:39:37 +0100 in /lustre/scratch/uccabz1/launch_tmp/launcher_2020-09-11-14-54-12-517856
REM CASTEP 20.1 from code version af48c487+ pr-geom-scf-spinfix Tue Jun 2 15:39:59 2020 +0100
REM Functional Perdew Burke Ernzerhof Relativity Koelling-Harmon Dispersion off
REM Cut-off 340.0000 eV Grid scale 1.7500 Gmax 16.5316 1/A FBSC none
REM MP grid 6 3 2 Offset 0.000 0.000 0.000 No. kpts 9 Spacing 0.07
REM Total runtime: 29080.9 s
REM Overall efficiency: 97.25 %
REM
REM
REM
REM compiler GCC version 4.9.2
REM options -cpp -iprefix /lustre/shared/ucl/apps/gcc/4.9.2/bin/../lib/gcc/x86_64-unknown-linux-gnu/4.9.2/ -mtune=corei7 -march=x86-64 -g -Og
REM COMMAND_LINE
REM seed -1730345486 1909348774 1618120167 -1344686975 779209042 1447583368 285485337 1528306715 889895641 -1449964175 1601766280 -1160944317
REM
REM S 3|1.8|5|6|7|30:31:32(qc=5)
REM O 2|1.5|12|13|15|20:21(qc=5)
REM Li 1|1.3|8|9|10|10U:20(qc=5)
REM Fe 3|2.2|2.0|1.0|8|9|10|40:41:32(qc=5)
REM 
CELL 1.54180    2.69770   18.25477   18.77745  158.54241   90.00000   90.00000
LATT -1
SFAC Li O  S  Fe 
Li     1 -0.2338850000000  0.4515700000000  0.2488300000000 1.0   0.00
Li     1 -0.2338850000000 -0.4515700000000 -0.2488300000000 1.0   0.00
Li     1  0.2610130000000 -0.4174460000000 -0.3424610000000 1.0   0.00
Li     1  0.2610130000000  0.4174460000000  0.3424610000000 1.0   0.00
Li     1 -0.2338380000000  0.2513400000000 -0.5786710000000 1.0  -0.01
Li     1 -0.2338380000000 -0.2513400000000  0.5786710000000 1.0  -0.01
O      2  0.2662890000000  0.4228930000000 -0.4062570000000 1.0  -0.00
O      2  0.2662890000000 -0.4228930000000  0.4062570000000 1.0  -0.00
O      2 -0.2391090000000  0.2727460000000  0.2763900000000 1.0   0.06
O      2 -0.2391090000000 -0.2727460000000 -0.2763900000000 1.0   0.06
S      3  0.2655650000000 -0.0846200000000  0.0694300000000 1.0  -0.03
S      3  0.2655650000000  0.0846200000000 -0.0694300000000 1.0  -0.03
Fe     4  0.2616180000000 -0.0931560000000 -0.1312590000000 1.0   0.63
Fe     4  0.2616180000000  0.0931560000000  0.1312590000000 1.0   0.63
END
