TITL LFSO-Li4FeSO2-200910-080920-d9663f 0.0057 131.040281 -2.83961118E+003 3.99976 4.14662 8 (P3) n - 1
REM
REM Run started: Thu, 10 Sep 2020 08:31:53 +0100 in /lustre/scratch/uccabz1/launch_tmp/launcher_2020-09-10-07-09-19-347776
REM CASTEP 20.1 from code version af48c487+ pr-geom-scf-spinfix Tue Jun 2 15:39:59 2020 +0100
REM Functional Perdew Burke Ernzerhof Relativity Koelling-Harmon Dispersion off
REM Cut-off 340.0000 eV Grid scale 1.7500 Gmax 16.5316 1/A FBSC none
REM MP grid 4 4 2 Offset 0.000 0.000 0.000 No. kpts 16 Spacing 0.07
REM Total runtime: 1755.24 s
REM Overall efficiency: 93.2 %
REM
REM
REM
REM compiler GCC version 4.9.2
REM options -cpp -iprefix /lustre/shared/ucl/apps/gcc/4.9.2/bin/../lib/gcc/x86_64-unknown-linux-gnu/4.9.2/ -mtune=corei7 -march=x86-64 -g -Og
REM COMMAND_LINE
REM seed -409759903 -732904566 -2078520975 -426706194 1011989460 -1137705241 -413633723 774571936 -879898182 -563195600 1169798606 1688613585
REM
REM S 3|1.8|5|6|7|30:31:32(qc=5)
REM O 2|1.5|12|13|15|20:21(qc=5)
REM Li 1|1.3|8|9|10|10U:20(qc=5)
REM Fe 3|2.2|2.0|1.0|8|9|10|40:41:32(qc=5)
REM 
CELL 1.54180    4.15112    4.15112    8.78101   90.00000   90.00000  120.00000
LATT -1
SFAC Li O  S  Fe 
Li     1 -0.3292180000000 -0.3217520000000  0.1347490000000 1.0  -0.04
Li     1  0.0074660000000  0.3292180000000  0.1347490000000 1.0  -0.04
Li     1  0.3217520000000 -0.0074660000000  0.1347490000000 1.0  -0.04
Li     1 -0.0000000000000  0.0000000000000  0.4642830000000 1.0  -0.01
O      2  0.3333330000000 -0.3333330000000  0.0118360000000 1.0   0.11
O      2 -0.0000000000000  0.0000000000000  0.2632970000000 1.0   0.02
S      3 -0.0000000000000  0.0000000000000 -0.2595250000000 1.0   0.24
Fe     4 -0.3333330000000  0.3333330000000 -0.1815420000000 1.0   3.76
END
