TITL LFSO-Li2Fe3S2O2-200921-035440-a52805 -0.0251 261.633666 -8.94894640E+003 17.5165 17.8607 18 (Pma2) n - 1
REM
REM Run started: Mon, 21 Sep 2020 12:24:06 +0100 in /lustre/scratch/uccabz1/launch_tmp/launcher_2020-09-21-02-54-38-870461
REM CASTEP 20.1 from code version af48c487+ pr-geom-scf-spinfix Tue Jun 2 15:39:59 2020 +0100
REM Functional Perdew Burke Ernzerhof Relativity Koelling-Harmon Dispersion off
REM Cut-off 340.0000 eV Grid scale 1.7500 Gmax 16.5316 1/A FBSC none
REM MP grid 4 3 2 Offset 0.000 0.000 0.000 No. kpts 4 Spacing 0.07
REM Total runtime: 30909.3 s
REM Overall efficiency: 97.75 %
REM
REM
REM
REM compiler GCC version 4.9.2
REM options -cpp -iprefix /lustre/shared/ucl/apps/gcc/4.9.2/bin/../lib/gcc/x86_64-unknown-linux-gnu/4.9.2/ -mtune=corei7 -march=x86-64 -g -Og
REM COMMAND_LINE
REM seed 71481784 -1796515987 1238644974 1160132420 899914699 -1270142264 -307756223 -1709770910 1070254017 733476689 1773125528 1885624436
REM
REM S 3|1.8|5|6|7|30:31:32(qc=5)
REM O 2|1.5|12|13|15|20:21(qc=5)
REM Li 1|1.3|8|9|10|10U:20(qc=5)
REM Fe 3|2.2|2.0|1.0|8|9|10|40:41:32(qc=5)
REM 
CELL 1.54180    3.74898    5.36373   13.01110   90.00000   90.00000   90.00000
LATT -1
SFAC Li O  S  Fe 
Li     1  0.1721970000000  0.3151640000000  0.4152590000000 1.0  -0.01
Li     1  0.1721970000000 -0.3151640000000 -0.4152590000000 1.0  -0.01
Li     1  0.1721970000000 -0.3151640000000 -0.0847410000000 1.0  -0.01
Li     1  0.1721970000000  0.3151640000000  0.0847410000000 1.0  -0.01
O      2 -0.3438440000000 -0.3080260000000 -0.3526710000000 1.0   0.19
O      2 -0.3438440000000  0.3080260000000  0.3526710000000 1.0   0.19
O      2 -0.3438440000000  0.3080260000000  0.1473290000000 1.0   0.19
O      2 -0.3438440000000 -0.3080260000000 -0.1473290000000 1.0   0.19
S      3  0.1956870000000  0.2323690000000 -0.3833530000000 1.0   0.11
S      3  0.1956870000000 -0.2323690000000  0.3833530000000 1.0   0.11
S      3  0.1956870000000 -0.2323690000000  0.1166470000000 1.0   0.11
S      3  0.1956870000000  0.2323690000000 -0.1166470000000 1.0   0.11
Fe     4 -0.3085390000000 -0.0303960000000  0.3357690000000 1.0   2.78
Fe     4 -0.3085390000000  0.0303960000000 -0.3357690000000 1.0   2.78
Fe     4 -0.3085390000000  0.0303960000000 -0.1642310000000 1.0   2.78
Fe     4 -0.3085390000000 -0.0303960000000  0.1642310000000 1.0   2.78
Fe     4  0.5084750000000 -0.4523400000000  0.2500000000000 1.0   2.61
Fe     4  0.5084750000000  0.4523400000000 -0.2500000000000 1.0   2.61
END
