TITL LFSO-LiFeSO-200909-050020-77bc1a 0.0663 168.858270 -5.41403549E+003 11.1988 11.3357 12 (P31) n - 1
REM
REM Run started: Wed, 09 Sep 2020 09:18:11 +0100 in /lustre/scratch/uccabz1/launch_tmp/launcher_2020-09-09-04-00-18-690518
REM CASTEP 20.1 from code version af48c487+ pr-geom-scf-spinfix Tue Jun 2 15:39:59 2020 +0100
REM Functional Perdew Burke Ernzerhof Relativity Koelling-Harmon Dispersion off
REM Cut-off 340.0000 eV Grid scale 1.7500 Gmax 16.5316 1/A FBSC none
REM MP grid 5 5 2 Offset 0.000 0.000 0.000 No. kpts 9 Spacing 0.07
REM Total runtime: 16023.1 s
REM Overall efficiency: 92.5556 %
REM
REM
REM
REM compiler GCC version 4.9.2
REM options -cpp -iprefix /lustre/shared/ucl/apps/gcc/4.9.2/bin/../lib/gcc/x86_64-unknown-linux-gnu/4.9.2/ -mtune=corei7 -march=x86-64 -g -Og
REM COMMAND_LINE
REM seed 443747638 -1987662856 753156508 -123065074 303254696 -498795225 -1237372665 1257609462 -299426998 -679788361 -1452923535 -917289477
REM
REM S 3|1.8|5|6|7|30:31:32(qc=5)
REM O 2|1.5|12|13|15|20:21(qc=5)
REM Li 1|1.3|8|9|10|10U:20(qc=5)
REM Fe 3|2.2|2.0|1.0|8|9|10|40:41:32(qc=5)
REM 
CELL 1.54180    3.82592    3.82592   13.32050   90.00000   90.00000  120.00000
LATT -1
SFAC Li O  S  Fe 
Li     1 -0.0109550000000  0.0134480000000  0.4102800000000 1.0  -0.02
Li     1  0.0244030000000  0.0109550000000  0.0769470000000 1.0  -0.02
Li     1 -0.0134480000000 -0.0244030000000 -0.2563860000000 1.0  -0.02
O      2  0.0520410000000  0.0994980000000  0.2352180000000 1.0   0.32
O      2  0.0474570000000 -0.0520410000000 -0.0981150000000 1.0   0.32
O      2 -0.0994980000000 -0.0474570000000 -0.4314480000000 1.0   0.32
S      3 -0.3485660000000  0.3075660000000 -0.2642670000000 1.0   0.21
S      3 -0.3438670000000  0.3485660000000  0.4023990000000 1.0   0.21
S      3 -0.3075660000000  0.3438670000000  0.0690660000000 1.0   0.21
Fe     4 -0.4034170000000  0.1859790000000  0.2367820000000 1.0   3.23
Fe     4  0.5893960000000  0.4034170000000 -0.0965510000000 1.0   3.23
Fe     4 -0.1859790000000 -0.5893960000000 -0.4298840000000 1.0   3.23
END
