TITL LFSO-Li3Fe3S2O4-200928-175615-29fccf 0.0094 326.338706 -1.10950784E+004 22.0783 22.2573 24 (I4) n - 1
REM
REM Run started: Tue, 29 Sep 2020 22:15:50 +0100 in /scratch/scratch/uccabz1/launch_tmp/launcher_2020-09-28-16-56-13-801133
REM CASTEP 19.11| from code version Version unavailable
REM Functional Perdew Burke Ernzerhof Relativity Koelling-Harmon Dispersion off
REM Cut-off 340.0000 eV Grid scale 1.7500 Gmax 16.5316 1/A FBSC none
REM MP grid 3 3 3 Offset 0.000 0.000 0.000 No. kpts 6 Spacing 0.07
REM Total runtime: 64946.9 s
REM Overall efficiency: 98.8889 %
REM
REM
REM
REM compiler GCC version 4.9.2
REM options -cpp -iprefix /scratch/UCL/applications/gcc/4.9.2/bin/../lib/gcc/x86_64-unknown-linux-gnu/4.9.2/ -mtune=corei7 -march=x86-64 -g -O2
REM COMMAND_LINE
REM seed -1851129849 -1049275446 -1008077576 -1548787083 632491800 -953202999 1843805046 1067499210 -1023790177 1536313917 416819708 -1327956550
REM
REM S 3|1.8|5|6|7|30:31:32(qc=5)
REM O 2|1.5|12|13|15|20:21(qc=5)
REM Li 1|1.3|8|9|10|10U:20(qc=5)
REM Fe 3|2.2|2.0|1.0|8|9|10|40:41:32(qc=5)
REM 
CELL 1.54180    8.05365    8.05365    7.59901  121.99970  121.99970   90.00000
LATT -1
SFAC Li O  S  Fe 
Li     1  0.0176530000000 -0.0721720000000 -0.4065020000000 1.0   0.00
Li     1 -0.4241550000000 -0.3343300000000 -0.4065020000000 1.0   0.00
Li     1 -0.3343300000000  0.0176530000000 -0.4065020000000 1.0   0.00
Li     1 -0.0721720000000 -0.4241550000000 -0.4065020000000 1.0   0.00
Li     1 -0.0523380000000  0.4476620000000 -0.1046750000000 1.0  -0.05
Li     1  0.4476620000000 -0.0523380000000 -0.1046750000000 1.0  -0.05
O      2 -0.3979000000000 -0.1099590000000  0.2524370000000 1.0   0.18
O      2 -0.3496630000000  0.3623970000000  0.2524370000000 1.0   0.18
O      2  0.3623970000000 -0.3979000000000  0.2524370000000 1.0   0.18
O      2 -0.1099590000000 -0.3496630000000  0.2524370000000 1.0   0.18
O      2  0.2542280000000  0.0647230000000 -0.0535160000000 1.0   0.38
O      2 -0.3077440000000 -0.1182390000000 -0.0535160000000 1.0   0.38
O      2 -0.1182390000000  0.2542280000000 -0.0535160000000 1.0   0.38
O      2  0.0647230000000 -0.3077440000000 -0.0535160000000 1.0   0.38
S      3  0.3945690000000  0.0494480000000 -0.3645910000000 1.0   0.26
S      3  0.2408410000000 -0.4140390000000 -0.3645910000000 1.0   0.26
S      3 -0.4140390000000  0.3945690000000 -0.3645910000000 1.0   0.26
S      3  0.0494480000000  0.2408410000000 -0.3645910000000 1.0   0.26
Fe     4  0.3320780000000  0.3120310000000  0.0332800000000 1.0   2.99
Fe     4 -0.2987980000000 -0.2787500000000  0.0332800000000 1.0   2.99
Fe     4 -0.2787500000000  0.3320780000000  0.0332800000000 1.0   2.99
Fe     4  0.3120310000000 -0.2987980000000  0.0332800000000 1.0   2.99
Fe     4  0.1944060000000 -0.3055940000000  0.3888130000000 1.0   3.48
Fe     4 -0.3055940000000  0.1944060000000  0.3888130000000 1.0   3.48
END
