TITL LFSO-Li4Fe2S4O-200910-170250-af9716 -0.0076 280.096719 -4.17998061E+003 3.93080 4.43687 11 (R3m) n - 1
REM
REM Run started: Thu, 10 Sep 2020 19:20:17 +0100 in /lustre/scratch/uccabz1/launch_tmp/launcher_2020-09-10-16-02-48-427917
REM CASTEP 20.1 from code version af48c487+ pr-geom-scf-spinfix Tue Jun 2 15:39:59 2020 +0100
REM Functional Perdew Burke Ernzerhof Relativity Koelling-Harmon Dispersion off
REM Cut-off 340.0000 eV Grid scale 1.7500 Gmax 16.5316 1/A FBSC none
REM MP grid 3 3 3 Offset 0.000 0.000 0.000 No. kpts 6 Spacing 0.07
REM Total runtime: 8430.24 s
REM Overall efficiency: 96.7143 %
REM
REM
REM
REM compiler GCC version 4.9.2
REM options -cpp -iprefix /lustre/shared/ucl/apps/gcc/4.9.2/bin/../lib/gcc/x86_64-unknown-linux-gnu/4.9.2/ -mtune=corei7 -march=x86-64 -g -Og
REM COMMAND_LINE
REM seed 1589782942 959545480 -396246375 832890066 484199629 464103409 2091545699 -19308046 171343524 1047521789 1597893002 929933806
REM
REM S 3|1.8|5|6|7|30:31:32(qc=5)
REM O 2|1.5|12|13|15|20:21(qc=5)
REM Li 1|1.3|8|9|10|10U:20(qc=5)
REM Fe 3|2.2|2.0|1.0|8|9|10|40:41:32(qc=5)
REM 
CELL 1.54180    6.66362    6.66362    6.66362   78.46869   78.46869   78.46869
LATT -1
SFAC Li O  S  Fe 
Li     1  0.1565040000000 -0.3967650000000 -0.3967650000000 1.0  -0.01
Li     1 -0.3967650000000 -0.3967650000000  0.1565040000000 1.0  -0.01
Li     1 -0.3967650000000  0.1565040000000 -0.3967650000000 1.0  -0.01
Li     1  0.1202680000000  0.1202680000000  0.1202680000000 1.0   0.05
O      2 -0.0093780000000 -0.0093780000000 -0.0093780000000 1.0   0.07
S      3 -0.0874330000000  0.5251090000000 -0.0874330000000 1.0   0.16
S      3  0.5251090000000 -0.0874330000000 -0.0874330000000 1.0   0.16
S      3 -0.0874330000000 -0.0874330000000  0.5251090000000 1.0   0.16
S      3 -0.4805910000000 -0.4805910000000 -0.4805910000000 1.0   0.16
Fe     4 -0.1290210000000 -0.1290210000000 -0.1290210000000 1.0  -0.15
Fe     4 -0.3161920000000 -0.3161920000000 -0.3161920000000 1.0   3.34
END
