TITL LFSO-Li2FeSO-200912-035027-cdb2d0 0.0213 64.406384 -2.00459423E+003 3.40767 3.44687 5 (P3m1) n - 1
REM
REM Run started: Sat, 12 Sep 2020 03:57:50 +0100 in /lustre/scratch/uccabz1/launch_tmp/launcher_2020-09-12-02-50-24-926731
REM CASTEP 20.1 from code version af48c487+ pr-geom-scf-spinfix Tue Jun 2 15:39:59 2020 +0100
REM Functional Perdew Burke Ernzerhof Relativity Koelling-Harmon Dispersion off
REM Cut-off 340.0000 eV Grid scale 1.7500 Gmax 16.5316 1/A FBSC none
REM MP grid 3 5 5 Offset 0.000 0.000 0.000 No. kpts 12 Spacing 0.07
REM Total runtime: 530.84 s
REM Overall efficiency: 83.6 %
REM
REM
REM
REM compiler GCC version 4.9.2
REM options -cpp -iprefix /lustre/shared/ucl/apps/gcc/4.9.2/bin/../lib/gcc/x86_64-unknown-linux-gnu/4.9.2/ -mtune=corei7 -march=x86-64 -g -Og
REM COMMAND_LINE
REM seed 868748012 -2059398906 73925213 1152471618 -664267017 -1572152387 -1771437301 971240063 -122292665 2103187878 -1614895872 -1848457062
REM
REM S 3|1.8|5|6|7|30:31:32(qc=5)
REM O 2|1.5|12|13|15|20:21(qc=5)
REM Li 1|1.3|8|9|10|10U:20(qc=5)
REM Fe 3|2.2|2.0|1.0|8|9|10|40:41:32(qc=5)
REM 
CELL 1.54180    5.62290    3.63680    3.63680  120.00000   90.00000   90.00000
LATT -1
SFAC Li O  S  Fe 
Li     1 -0.4526820000000  0.3333330000000 -0.3333330000000 1.0   0.04
Li     1 -0.4521210000000  0.0000000000000 -0.0000000000000 1.0  -0.07
O      2  0.5769070000000 -0.3333330000000  0.3333330000000 1.0   0.14
S      3  0.0764140000000  0.3333330000000 -0.3333330000000 1.0   0.16
Fe     4 -0.0682130000000 -0.3333330000000  0.3333330000000 1.0   3.14
END
