TITL LFSO-Li2Fe2S2O-200913-133836-ce323c 0.0179 198.805400 -6.34365656E+003 9.56147 10.0156 14 (Pbam) n - 1
REM
REM Run started: Sun, 13 Sep 2020 15:32:34 +0100 in /lustre/scratch/uccabz1/launch_tmp/launcher_2020-09-13-12-38-33-822827
REM CASTEP 20.1 from code version af48c487+ pr-geom-scf-spinfix Tue Jun 2 15:39:59 2020 +0100
REM Functional Perdew Burke Ernzerhof Relativity Koelling-Harmon Dispersion off
REM Cut-off 340.0000 eV Grid scale 1.7500 Gmax 16.5316 1/A FBSC none
REM MP grid 3 5 2 Offset 0.000 0.000 0.000 No. kpts 6 Spacing 0.07
REM Total runtime: 7226.82 s
REM Overall efficiency: 96 %
REM
REM
REM
REM compiler GCC version 4.9.2
REM options -cpp -iprefix /lustre/shared/ucl/apps/gcc/4.9.2/bin/../lib/gcc/x86_64-unknown-linux-gnu/4.9.2/ -mtune=corei7 -march=x86-64 -g -Og
REM COMMAND_LINE
REM seed -1712619655 1166469463 -1118311517 1650097476 2017375385 -55539912 1186902403 395368745 -2091993778 84002926 108332059 1273184864
REM
REM S 3|1.8|5|6|7|30:31:32(qc=5)
REM O 2|1.5|12|13|15|20:21(qc=5)
REM Li 1|1.3|8|9|10|10U:20(qc=5)
REM Fe 3|2.2|2.0|1.0|8|9|10|40:41:32(qc=5)
REM 
CELL 1.54180    5.57015    2.99589   11.91340   90.00000   90.00000   90.00000
LATT -1
SFAC Li O  S  Fe 
Li     1 -0.3179130000000  0.4095800000000  0.0393010000000 1.0  -0.05
Li     1  0.3179130000000  0.4095800000000 -0.0393010000000 1.0  -0.05
Li     1 -0.1820870000000  0.4095800000000 -0.4606990000000 1.0  -0.05
Li     1  0.1820870000000  0.4095800000000  0.4606990000000 1.0  -0.05
O      2  0.5000000000000 -0.0860470000000  0.0000000000000 1.0   0.22
O      2  0.0000000000000 -0.0860470000000  0.5000000000000 1.0   0.22
S      3  0.5188180000000 -0.0824140000000  0.3323100000000 1.0  -0.01
S      3 -0.5188180000000 -0.0824140000000 -0.3323100000000 1.0  -0.01
S      3 -0.0188180000000 -0.0824140000000 -0.1676900000000 1.0  -0.01
S      3  0.0188180000000 -0.0824140000000  0.1676900000000 1.0  -0.01
Fe     4 -0.1922290000000  0.4114600000000  0.2814860000000 1.0   2.34
Fe     4  0.1922290000000  0.4114600000000 -0.2814860000000 1.0   2.34
Fe     4 -0.3077710000000  0.4114600000000 -0.2185140000000 1.0   2.34
Fe     4  0.3077710000000  0.4114600000000  0.2185140000000 1.0   2.34
END
