TITL LFSO-Li4Fe2S3O2-200911-063525-8b3279 0.0454 437.812928 -8.62736539E+003 -15.9795 16.1050 22 (R3) n - 1
REM
REM Run started: Sat, 12 Sep 2020 00:40:59 +0100 in /lustre/scratch/uccabz1/launch_tmp/launcher_2020-09-11-05-35-23-512072
REM CASTEP 20.1 from code version af48c487+ pr-geom-scf-spinfix Tue Jun 2 15:39:59 2020 +0100
REM Functional Perdew Burke Ernzerhof Relativity Koelling-Harmon Dispersion off
REM Cut-off 340.0000 eV Grid scale 1.7500 Gmax 16.5316 1/A FBSC none
REM MP grid 2 2 3 Offset 0.000 0.000 0.000 No. kpts 6 Spacing 0.07
REM Total runtime: 65431.9 s
REM Overall efficiency: 98.1 %
REM
REM
REM
REM compiler GCC version 4.9.2
REM options -cpp -iprefix /lustre/shared/ucl/apps/gcc/4.9.2/bin/../lib/gcc/x86_64-unknown-linux-gnu/4.9.2/ -mtune=corei7 -march=x86-64 -g -Og
REM COMMAND_LINE
REM seed 1711779931 -32583468 -770224015 355178554 1667113622 2113294885 1364626533 -607090920 -626403054 766087102 -1741060669 -1122676662
REM
REM S 3|1.8|5|6|7|30:31:32(qc=5)
REM O 2|1.5|12|13|15|20:21(qc=5)
REM Li 1|1.3|8|9|10|10U:20(qc=5)
REM Fe 3|2.2|2.0|1.0|8|9|10|40:41:32(qc=5)
REM 
CELL 1.54180    9.81063    9.81063    7.72472   50.57889   50.57889   60.00000
LATT -1
SFAC Li O  S  Fe 
Li     1 -0.2360350000000  0.2184210000000  0.3630600000000 1.0   0.00
Li     1  0.2184210000000 -0.3454470000000  0.3630600000000 1.0   0.00
Li     1 -0.3454470000000 -0.2360350000000  0.3630600000000 1.0   0.00
Li     1  0.1925700000000  0.1121100000000  0.1311240000000 1.0  -0.00
Li     1  0.1121100000000 -0.4358030000000  0.1311240000000 1.0  -0.00
Li     1 -0.4358030000000  0.1925700000000  0.1311240000000 1.0  -0.00
Li     1  0.1890740000000  0.1890740000000 -0.5672230000000 1.0  -0.09
Li     1 -0.0109300000000 -0.0109300000000  0.0327890000000 1.0  -0.11
O      2 -0.0092990000000 -0.3190520000000 -0.3729470000000 1.0  -0.15
O      2 -0.3190520000000 -0.2987010000000 -0.3729470000000 1.0  -0.15
O      2 -0.2987010000000 -0.0092990000000 -0.3729470000000 1.0  -0.15
O      2 -0.3769610000000 -0.3769610000000  0.1308820000000 1.0  -0.49
S      3  0.2848490000000 -0.0701470000000 -0.0367300000000 1.0  -0.41
S      3 -0.0701470000000 -0.1779730000000 -0.0367300000000 1.0  -0.41
S      3 -0.1779730000000  0.2848490000000 -0.0367300000000 1.0  -0.41
S      3 -0.0108020000000  0.3422250000000  0.2439180000000 1.0  -0.28
S      3  0.3422250000000  0.4246590000000  0.2439180000000 1.0  -0.28
S      3  0.4246590000000 -0.0108020000000  0.2439180000000 1.0  -0.28
Fe     4 -0.1170960000000 -0.3915080000000 -0.0116960000000 1.0  -3.71
Fe     4 -0.3915080000000  0.5203000000000 -0.0116960000000 1.0  -3.71
Fe     4  0.5203000000000 -0.1170960000000 -0.0116960000000 1.0  -3.71
Fe     4 -0.1962560000000 -0.1962560000000  0.5887690000000 1.0  -1.61
END
