TITL LFSO-Li4Fe3S2O3-201001-113439-aef710 -0.0358 371.925685 -1.06250987E+004 -7.99462 21.2062 24 (Cc) n - 1
REM
REM Run started: Fri, 02 Oct 2020 05:36:39 +0100 in /lustre/scratch/uccabz1/launch_tmp/launcher_2020-10-01-10-34-37-878746
REM CASTEP 20.1 from code version af48c487+ pr-geom-scf-spinfix Tue Jun 2 15:39:59 2020 +0100
REM Functional Perdew Burke Ernzerhof Relativity Koelling-Harmon Dispersion off
REM Cut-off 340.0000 eV Grid scale 1.7500 Gmax 16.5316 1/A FBSC none
REM MP grid 3 2 4 Offset 0.000 0.000 0.000 No. kpts 7 Spacing 0.07
REM Total runtime: 67874.3 s
REM Overall efficiency: 76.8182 %
REM
REM
REM
REM compiler GCC version 4.9.2
REM options -cpp -iprefix /lustre/shared/ucl/apps/gcc/4.9.2/bin/../lib/gcc/x86_64-unknown-linux-gnu/4.9.2/ -mtune=corei7 -march=x86-64 -g -Og
REM COMMAND_LINE
REM seed 1233648754 2097333167 974801957 770340855 -880611145 2124011677 -1415136262 -2059384405 -345267451 1336893899 -1652603860 1302610380
REM
REM S 3|1.8|5|6|7|30:31:32(qc=5)
REM O 2|1.5|12|13|15|20:21(qc=5)
REM Li 1|1.3|8|9|10|10U:20(qc=5)
REM Fe 3|2.2|2.0|1.0|8|9|10|40:41:32(qc=5)
REM 
CELL 1.54180    7.12119   11.27601    7.61949  137.72667  106.73963   90.00000
LATT -1
SFAC Li O  S  Fe 
Li     1 -0.2232650000000 -0.2534390000000 -0.4938060000000 1.0  -0.04
Li     1  0.2767350000000 -0.2403670000000 -0.4938060000000 1.0  -0.04
Li     1 -0.1070220000000 -0.0245610000000  0.2323610000000 1.0  -0.09
Li     1  0.3929780000000  0.2569220000000  0.2323610000000 1.0  -0.09
Li     1 -0.3607370000000  0.0579290000000 -0.0911220000000 1.0   0.01
Li     1  0.1392630000000 -0.1490510000000 -0.0911220000000 1.0   0.01
Li     1 -0.0782090000000  0.5509950000000  0.1865000000000 1.0   0.08
Li     1  0.4217910000000 -0.3644950000000  0.1865000000000 1.0   0.08
O      2 -0.3722230000000  0.5076430000000  0.0791290000000 1.0  -0.26
O      2  0.1277770000000 -0.4285150000000  0.0791290000000 1.0  -0.26
O      2 -0.1025870000000 -0.2497620000000 -0.1284410000000 1.0   0.01
O      2  0.3974130000000  0.1213210000000 -0.1284410000000 1.0   0.01
O      2  0.0591030000000 -0.1782680000000  0.6139210000000 1.0   0.20
O      2  0.5591030000000 -0.2078110000000  0.6139210000000 1.0   0.20
S      3  0.2411500000000  0.1691010000000 -0.5591750000000 1.0  -0.31
S      3 -0.2588500000000  0.2717250000000 -0.5591750000000 1.0  -0.31
S      3  0.3461920000000  0.5724920000000  0.6884770000000 1.0  -0.04
S      3 -0.1538080000000  0.1159860000000  0.6884770000000 1.0  -0.04
Fe     4 -0.5754360000000  0.2769450000000 -0.1439720000000 1.0  -3.34
Fe     4 -0.0754360000000 -0.4209170000000 -0.1439720000000 1.0  -3.34
Fe     4  0.1120070000000  0.0287310000000 -0.2869780000000 1.0   3.04
Fe     4 -0.3879930000000 -0.3157090000000 -0.2869780000000 1.0   3.04
Fe     4  0.0744100000000  0.3003560000000 -0.2401470000000 1.0  -3.25
Fe     4 -0.4255900000000 -0.5405030000000 -0.2401470000000 1.0  -3.25
END
