TITL LFSO-Li3Fe3S2O4-200929-151047-ba56eb -0.1096 444.151645 -1.10999957E+004 5.86239 17.3943 24 (Pc) n - 1
REM
REM Run started: Thu, 01 Oct 2020 17:31:09 +0100 in /lustre/scratch/uccabz1/launch_tmp/launcher_2020-10-01-14-10-09-411298
REM CASTEP 20.1 from code version af48c487+ pr-geom-scf-spinfix Tue Jun 2 15:39:59 2020 +0100
REM Functional Perdew Burke Ernzerhof Relativity Koelling-Harmon Dispersion off
REM Cut-off 340.0000 eV Grid scale 1.7500 Gmax 16.5316 1/A FBSC none
REM MP grid 4 3 2 Offset 0.000 0.000 0.000 No. kpts 6 Spacing 0.07
REM Total runtime: 163801 s
REM Overall efficiency: 88.9167 %
REM
REM
REM
REM compiler GCC version 4.9.2
REM options -cpp -iprefix /lustre/shared/ucl/apps/gcc/4.9.2/bin/../lib/gcc/x86_64-unknown-linux-gnu/4.9.2/ -mtune=corei7 -march=x86-64 -g -Og
REM COMMAND_LINE
REM seed -82012578 -1735438309 1239355302 172654272 1996114323 1564663296 -395332289 -1798815883 -683172258 598274741 -720115633 -1488921407
REM
REM S 3|1.8|5|6|7|30:31:32(qc=5)
REM O 2|1.5|12|13|15|20:21(qc=5)
REM Li 1|1.3|8|9|10|10U:20(qc=5)
REM Fe 3|2.2|2.0|1.0|8|9|10|40:41:32(qc=5)
REM 
CELL 1.54180    5.42114    6.79294   14.39741   90.00000   90.00000  123.09990
LATT -1
SFAC Li O  S  Fe 
Li     1  0.7666780000000  0.0790740000000  0.2111130000000 1.0   0.01
Li     1  0.2666780000000  0.0790740000000 -0.2111130000000 1.0   0.01
Li     1 -0.6037570000000  0.1957820000000 -0.4372340000000 1.0   0.01
Li     1 -0.1037570000000  0.1957820000000  0.4372340000000 1.0   0.01
Li     1 -0.5119650000000  0.2783260000000  0.3310290000000 1.0  -0.00
Li     1 -0.0119650000000  0.2783260000000 -0.3310290000000 1.0  -0.00
O      2  0.2375970000000  0.0609210000000  0.0848170000000 1.0   0.31
O      2 -0.2624030000000  0.0609210000000 -0.0848170000000 1.0   0.31
O      2 -0.1660150000000  0.2883410000000  0.3088410000000 1.0  -0.22
O      2  0.3339850000000  0.2883410000000 -0.3088410000000 1.0  -0.22
O      2 -0.2924710000000  0.0156710000000  0.0858020000000 1.0   0.23
O      2  0.2075290000000  0.0156710000000 -0.0858020000000 1.0   0.23
O      2 -0.2032730000000  0.4532970000000  0.4717370000000 1.0   0.02
O      2  0.2967270000000  0.4532970000000 -0.4717370000000 1.0   0.02
S      3  0.1398030000000 -0.0812420000000  0.4210340000000 1.0  -0.00
S      3 -0.3601970000000 -0.0812420000000 -0.4210340000000 1.0  -0.00
S      3 -0.5035130000000 -0.3320640000000  0.3213810000000 1.0   0.10
S      3 -0.0035130000000 -0.3320640000000 -0.3213810000000 1.0   0.10
Fe     4  0.1670740000000 -0.3233730000000 -0.4663940000000 1.0   2.17
Fe     4 -0.3329260000000 -0.3233730000000  0.4663940000000 1.0   2.17
Fe     4  0.0529580000000 -0.4278770000000  0.3563630000000 1.0  -2.57
Fe     4  0.5529580000000 -0.4278770000000 -0.3563630000000 1.0  -2.57
Fe     4  0.4723520000000  0.0380030000000  0.0001440000000 1.0   2.88
Fe     4 -0.0276480000000  0.0380030000000 -0.0001440000000 1.0   2.88
END
