TITL LFSO-Li4Fe2S2O3-200911-100418-5f2876 -0.0222 321.735124 -8.89734544E+003 14.0158 14.3079 22 (Cc) n - 1
REM
REM Run started: Sat, 12 Sep 2020 02:41:09 +0100 in /lustre/scratch/uccabz1/launch_tmp/launcher_2020-09-11-13-24-57-164421
REM CASTEP 20.1 from code version af48c487+ pr-geom-scf-spinfix Tue Jun 2 15:39:59 2020 +0100
REM Functional Perdew Burke Ernzerhof Relativity Koelling-Harmon Dispersion off
REM Cut-off 340.0000 eV Grid scale 1.7500 Gmax 16.5316 1/A FBSC none
REM MP grid 4 2 4 Offset 0.000 0.000 0.000 No. kpts 8 Spacing 0.07
REM Total runtime: 63233.3 s
REM Overall efficiency: 98.6154 %
REM
REM
REM
REM compiler GCC version 4.9.2
REM options -cpp -iprefix /lustre/shared/ucl/apps/gcc/4.9.2/bin/../lib/gcc/x86_64-unknown-linux-gnu/4.9.2/ -mtune=corei7 -march=x86-64 -g -Og
REM COMMAND_LINE
REM seed 682028735 -1943791744 -1562623236 1197779141 1498021985 1851169092 1852006795 -696346459 -185066998 54661828 -1949618826 1100807257
REM
REM S 3|1.8|5|6|7|30:31:32(qc=5)
REM O 2|1.5|12|13|15|20:21(qc=5)
REM Li 1|1.3|8|9|10|10U:20(qc=5)
REM Fe 3|2.2|2.0|1.0|8|9|10|40:41:32(qc=5)
REM 
CELL 1.54180    4.84100   14.70408    9.45211  141.06138   65.93070   90.00000
LATT -1
SFAC Li O  S  Fe 
Li     1  0.4168920000000 -0.1731820000000 -0.2479040000000 1.0  -0.01
Li     1 -0.0831080000000 -0.0747220000000 -0.2479040000000 1.0  -0.01
Li     1 -0.2960310000000 -0.4253900000000  0.2583110000000 1.0  -0.01
Li     1  0.2039690000000 -0.3162990000000  0.2583110000000 1.0  -0.01
Li     1 -0.2252360000000 -0.1290160000000  0.0362850000000 1.0  -0.04
Li     1  0.2747640000000  0.1653020000000  0.0362850000000 1.0  -0.04
Li     1  0.5560760000000  0.1770340000000 -0.4249120000000 1.0   0.02
Li     1  0.0560760000000  0.3980540000000 -0.4249120000000 1.0   0.02
O      2 -0.5698210000000 -0.2289490000000  0.4347730000000 1.0   0.27
O      2 -0.0698210000000  0.6637220000000  0.4347730000000 1.0   0.27
O      2  0.5032210000000 -0.0090800000000  0.4029410000000 1.0   0.19
O      2  0.0032210000000  0.4120220000000  0.4029410000000 1.0   0.19
O      2  0.2479950000000 -0.3291220000000 -0.3505240000000 1.0   0.26
O      2 -0.2520050000000 -0.0214020000000 -0.3505240000000 1.0   0.26
S      3 -0.1599140000000  0.1205840000000  0.2115890000000 1.0   0.01
S      3 -0.6599140000000  0.0910040000000  0.2115890000000 1.0   0.01
S      3 -0.3230920000000  0.3132340000000 -0.0875210000000 1.0   0.18
S      3  0.1769080000000 -0.4007550000000 -0.0875210000000 1.0   0.18
Fe     4  0.6083460000000 -0.1365420000000 -0.6017930000000 1.0   3.24
Fe     4  0.1083460000000 -0.4652510000000 -0.6017930000000 1.0   3.24
Fe     4  0.5454230000000 -0.4450840000000 -0.4006710000000 1.0   2.90
Fe     4  0.0454230000000  0.0444130000000 -0.4006710000000 1.0   2.90
END
