TITL LFSO-Li4Fe2S3O-200911-003015-d5fe26 0.3540 459.921395 -7.75231478E+003 11.8117 12.1464 20 (P2) n - 1
REM
REM Run started: Fri, 11 Sep 2020 14:00:49 +0100 in /lustre/scratch/uccabz1/launch_tmp/launcher_2020-09-11-12-18-17-237816
REM CASTEP 20.1 from code version af48c487+ pr-geom-scf-spinfix Tue Jun 2 15:39:59 2020 +0100
REM Functional Perdew Burke Ernzerhof Relativity Koelling-Harmon Dispersion off
REM Cut-off 340.0000 eV Grid scale 1.7500 Gmax 16.5316 1/A FBSC none
REM MP grid 4 2 2 Offset 0.000 0.000 0.000 No. kpts 4 Spacing 0.07
REM Total runtime: 45216.2 s
REM Overall efficiency: 98.1667 %
REM
REM
REM
REM compiler GCC version 4.9.2
REM options -cpp -iprefix /lustre/shared/ucl/apps/gcc/4.9.2/bin/../lib/gcc/x86_64-unknown-linux-gnu/4.9.2/ -mtune=corei7 -march=x86-64 -g -Og
REM COMMAND_LINE
REM seed 1786538632 1953199593 1833500714 -1306563595 -457195846 686439557 -247558746 -1953809958 819359607 -2025020977 -543654171 2125916354
REM
REM S 3|1.8|5|6|7|30:31:32(qc=5)
REM O 2|1.5|12|13|15|20:21(qc=5)
REM Li 1|1.3|8|9|10|10U:20(qc=5)
REM Fe 3|2.2|2.0|1.0|8|9|10|40:41:32(qc=5)
REM 
CELL 1.54180    3.79966   14.93645   11.97975  137.43222   90.00000   90.00000
LATT -1
SFAC Li O  S  Fe 
Li     1  0.4246840000000 -0.3626910000000 -0.2177380000000 1.0   0.02
Li     1  0.4246840000000  0.3626910000000  0.2177380000000 1.0   0.02
Li     1 -0.0261050000000 -0.1300090000000 -0.5373510000000 1.0  -0.02
Li     1 -0.0261050000000  0.1300090000000  0.5373510000000 1.0  -0.02
Li     1 -0.0757090000000 -0.4328230000000  0.2730540000000 1.0   0.03
Li     1 -0.0757090000000  0.4328230000000 -0.2730540000000 1.0   0.03
Li     1  0.4744230000000 -0.0120840000000 -0.3069060000000 1.0   0.04
Li     1  0.4744230000000  0.0120840000000  0.3069060000000 1.0   0.04
O      2 -0.0749870000000  0.3696190000000  0.1988840000000 1.0   0.16
O      2 -0.0749870000000 -0.3696190000000 -0.1988840000000 1.0   0.16
S      3  0.4721830000000 -0.2408320000000  0.4146700000000 1.0   0.11
S      3  0.4721830000000  0.2408320000000 -0.4146700000000 1.0   0.11
S      3 -0.0308280000000  0.1036390000000 -0.2779230000000 1.0   0.14
S      3 -0.0308280000000 -0.1036390000000  0.2779230000000 1.0   0.14
S      3 -0.5669430000000 -0.4094180000000 -0.0415880000000 1.0   0.13
S      3 -0.5669430000000  0.4094180000000  0.0415880000000 1.0   0.13
Fe     4 -0.5288310000000  0.2274280000000 -0.2295950000000 1.0   3.12
Fe     4 -0.5288310000000 -0.2274280000000  0.2295950000000 1.0   3.12
Fe     4 -0.0729900000000  0.3028080000000  0.0002530000000 1.0   2.18
Fe     4 -0.0729900000000 -0.3028080000000 -0.0002530000000 1.0   2.18
END
