TITL LFSO-Li2Fe4S3O2-200912-031002-5d2c4e 0.3052 372.038216 -1.12825599E+004 -20.9752 21.6672 22 (Cc) n - 1
REM
REM Run started: Sun, 13 Sep 2020 16:16:25 +0100 in /lustre/scratch/uccabz1/launch_tmp/launcher_2020-09-13-14-10-29-110639
REM CASTEP 20.1 from code version af48c487+ pr-geom-scf-spinfix Tue Jun 2 15:39:59 2020 +0100
REM Functional Perdew Burke Ernzerhof Relativity Koelling-Harmon Dispersion off
REM Cut-off 340.0000 eV Grid scale 1.7500 Gmax 16.5316 1/A FBSC none
REM MP grid 3 3 2 Offset 0.000 0.000 0.000 No. kpts 9 Spacing 0.07
REM Total runtime: 132220 s
REM Overall efficiency: 98.7 %
REM
REM
REM
REM compiler GCC version 4.9.2
REM options -cpp -iprefix /lustre/shared/ucl/apps/gcc/4.9.2/bin/../lib/gcc/x86_64-unknown-linux-gnu/4.9.2/ -mtune=corei7 -march=x86-64 -g -Og
REM COMMAND_LINE
REM seed 1998366246 -775156948 1344948210 -429045131 -1626684569 -911197502 -1525103106 -555320140 1431549972 1859740243 -613425633 -144157335
REM
REM S 3|1.8|5|6|7|30:31:32(qc=5)
REM O 2|1.5|12|13|15|20:21(qc=5)
REM Li 1|1.3|8|9|10|10U:20(qc=5)
REM Fe 3|2.2|2.0|1.0|8|9|10|40:41:32(qc=5)
REM 
CELL 1.54180    5.71082    7.67518    9.38826  114.12725   97.15619   90.00000
LATT -1
SFAC Li O  S  Fe 
Li     1 -0.0470900000000 -0.3704580000000 -0.1312350000000 1.0   0.02
Li     1  0.4529100000000  0.2392240000000 -0.1312350000000 1.0   0.02
Li     1 -0.5159180000000 -0.1594080000000 -0.3131240000000 1.0   0.01
Li     1 -0.0159180000000 -0.1537160000000 -0.3131240000000 1.0   0.01
O      2 -0.2843610000000 -0.2593510000000 -0.0118760000000 1.0  -0.24
O      2  0.2156390000000  0.2474750000000 -0.0118760000000 1.0  -0.24
O      2 -0.2866950000000  0.0596650000000 -0.2103800000000 1.0  -0.17
O      2  0.2133050000000 -0.2700450000000 -0.2103800000000 1.0  -0.17
S      3 -0.2872430000000 -0.1464730000000  0.4225570000000 1.0  -0.17
S      3  0.2127570000000 -0.4309700000000  0.4225570000000 1.0  -0.17
S      3  0.1997430000000 -0.0855750000000  0.1945860000000 1.0  -0.04
S      3 -0.3002570000000  0.2801620000000  0.1945860000000 1.0  -0.04
S      3 -0.3439280000000  0.4190480000000 -0.3615090000000 1.0  -0.02
S      3  0.1560720000000  0.2194430000000 -0.3615090000000 1.0  -0.02
Fe     4  0.4148940000000 -0.1841680000000 -0.0125470000000 1.0  -3.00
Fe     4 -0.0851060000000  0.1716200000000 -0.0125470000000 1.0  -3.00
Fe     4 -0.1763840000000 -0.0182130000000  0.1313640000000 1.0  -2.23
Fe     4  0.3236160000000  0.1495770000000  0.1313640000000 1.0  -2.23
Fe     4  0.0144260000000  0.0070320000000  0.4040610000000 1.0  -2.34
Fe     4  0.5144260000000  0.3970290000000  0.4040610000000 1.0  -2.34
Fe     4  0.2811550000000 -0.5051390000000 -0.3772980000000 1.0  -2.30
Fe     4 -0.2188450000000  0.1278410000000 -0.3772980000000 1.0  -2.30
END
