TITL LFSO-Li4Fe2S2O3-200911-100131-b14468 -0.0746 287.026191 -8.89864371E+003 15.2965 15.4649 22 (P21/c) n - 1
REM
REM Run started: Fri, 11 Sep 2020 17:41:39 +0100 in /lustre/scratch/uccabz1/launch_tmp/launcher_2020-09-11-09-01-29-931664
REM CASTEP 20.1 from code version af48c487+ pr-geom-scf-spinfix Tue Jun 2 15:39:59 2020 +0100
REM Functional Perdew Burke Ernzerhof Relativity Koelling-Harmon Dispersion off
REM Cut-off 340.0000 eV Grid scale 1.7500 Gmax 16.5316 1/A FBSC none
REM MP grid 4 3 2 Offset 0.000 0.000 0.000 No. kpts 6 Spacing 0.07
REM Total runtime: 31818.5 s
REM Overall efficiency: 80.5 %
REM
REM
REM
REM compiler GCC version 4.9.2
REM options -cpp -iprefix /lustre/shared/ucl/apps/gcc/4.9.2/bin/../lib/gcc/x86_64-unknown-linux-gnu/4.9.2/ -mtune=corei7 -march=x86-64 -g -Og
REM COMMAND_LINE
REM seed 91658870 104185997 1671140652 -1682649400 -266022541 -455134898 1452252869 91520924 -882231887 1237469347 -875929351 1726188356
REM
REM S 3|1.8|5|6|7|30:31:32(qc=5)
REM O 2|1.5|12|13|15|20:21(qc=5)
REM Li 1|1.3|8|9|10|10U:20(qc=5)
REM Fe 3|2.2|2.0|1.0|8|9|10|40:41:32(qc=5)
REM 
CELL 1.54180    5.22652    6.32856    9.57535   90.00000   90.00000   64.99241
LATT -1
SFAC Li O  S  Fe 
Li     1 -0.4685460000000 -0.2128290000000 -0.3798800000000 1.0  -0.00
Li     1 -0.0314540000000  0.2128290000000  0.1201200000000 1.0  -0.00
Li     1  0.4685460000000  0.2128290000000  0.3798800000000 1.0  -0.00
Li     1  0.0314540000000 -0.2128290000000 -0.1201200000000 1.0  -0.00
Li     1  0.1885760000000  0.3324160000000 -0.1624090000000 1.0  -0.02
Li     1  0.3114240000000 -0.3324160000000  0.3375910000000 1.0  -0.02
Li     1 -0.1885760000000 -0.3324160000000  0.1624090000000 1.0  -0.02
Li     1 -0.3114240000000  0.3324160000000 -0.3375910000000 1.0  -0.02
O      2  0.3574630000000 -0.3511310000000 -0.2406050000000 1.0   0.25
O      2  0.1425370000000  0.3511310000000  0.2593950000000 1.0   0.25
O      2 -0.3574630000000  0.3511310000000  0.2406050000000 1.0   0.25
O      2 -0.1425370000000 -0.3511310000000 -0.2593950000000 1.0   0.25
O      2 -0.0000000000000 -0.5000000000000  0.0000000000000 1.0   0.19
O      2  0.5000000000000  0.5000000000000 -0.5000000000000 1.0   0.19
S      3 -0.1620530000000 -0.2039420000000  0.4219880000000 1.0   0.27
S      3 -0.3379470000000  0.2039420000000 -0.0780120000000 1.0   0.27
S      3  0.1620530000000  0.2039420000000 -0.4219880000000 1.0   0.27
S      3  0.3379470000000 -0.2039420000000  0.0780120000000 1.0   0.27
Fe     4  0.1448890000000 -0.4134280000000 -0.3923860000000 1.0   3.24
Fe     4  0.3551110000000  0.4134280000000  0.1076140000000 1.0   3.24
Fe     4 -0.1448890000000  0.4134280000000  0.3923860000000 1.0   3.24
Fe     4 -0.3551110000000 -0.4134280000000 -0.1076140000000 1.0   3.24
END
