TITL LFSO-LiFeSO-200909-052102-a0db8e 0.1578 273.005925 -7.21932819E+003 8.86549 9.60997 16 (Pc) n - 1
REM
REM Run started: Wed, 09 Sep 2020 21:08:57 +0100 in /lustre/scratch/uccabz1/launch_tmp/launcher_2020-09-09-04-21-01-081908
REM CASTEP 20.1 from code version af48c487+ pr-geom-scf-spinfix Tue Jun 2 15:39:59 2020 +0100
REM Functional Perdew Burke Ernzerhof Relativity Koelling-Harmon Dispersion off
REM Cut-off 340.0000 eV Grid scale 1.7500 Gmax 16.5316 1/A FBSC none
REM MP grid 5 3 2 Offset 0.000 0.000 0.000 No. kpts 8 Spacing 0.07
REM Total runtime: 60134.5 s
REM Overall efficiency: 96.25 %
REM
REM
REM
REM compiler GCC version 4.9.2
REM options -cpp -iprefix /lustre/shared/ucl/apps/gcc/4.9.2/bin/../lib/gcc/x86_64-unknown-linux-gnu/4.9.2/ -mtune=corei7 -march=x86-64 -g -Og
REM COMMAND_LINE
REM seed -902775573 1060167156 1319150410 966739648 1164739722 -1546509831 -1712848304 148581928 -1117882001 -1596927047 201163285 1632186579
REM
REM S 3|1.8|5|6|7|30:31:32(qc=5)
REM O 2|1.5|12|13|15|20:21(qc=5)
REM Li 1|1.3|8|9|10|10U:20(qc=5)
REM Fe 3|2.2|2.0|1.0|8|9|10|40:41:32(qc=5)
REM 
CELL 1.54180    3.75809    7.11136   12.27609   90.00000   90.00000  123.68179
LATT -1
SFAC Li O  S  Fe 
Li     1 -0.0541610000000  0.1850790000000  0.1193810000000 1.0  -0.00
Li     1  0.4458390000000  0.1850790000000 -0.1193810000000 1.0  -0.00
Li     1  0.0809100000000 -0.1488580000000 -0.4311290000000 1.0   0.01
Li     1 -0.4190900000000 -0.1488580000000  0.4311290000000 1.0   0.01
O      2 -0.4462930000000 -0.1720760000000 -0.4067530000000 1.0  -0.03
O      2  0.0537070000000 -0.1720760000000  0.4067530000000 1.0  -0.03
O      2  0.7208790000000  0.4850890000000 -0.1519190000000 1.0   0.12
O      2  0.2208790000000  0.4850890000000  0.1519190000000 1.0   0.12
S      3  0.1798010000000 -0.0733200000000  0.1183860000000 1.0   0.12
S      3 -0.3201990000000 -0.0733200000000 -0.1183860000000 1.0   0.12
S      3 -0.2046020000000 -0.4355430000000  0.3563400000000 1.0  -0.02
S      3  0.2953980000000 -0.4355430000000 -0.3563400000000 1.0  -0.02
Fe     4 -0.0214730000000  0.7327020000000 -0.0537700000000 1.0   1.99
Fe     4 -0.5214730000000  0.7327020000000  0.0537700000000 1.0   1.99
Fe     4  0.3015640000000  0.5603710000000 -0.1846940000000 1.0   2.24
Fe     4 -0.1984360000000  0.5603710000000  0.1846940000000 1.0   2.24
END
