TITL LFSO-Li4Fe3S4O-200926-120013-8e6d48 0.1471 508.064315 -1.00850405E+004 -19.5384 20.5565 24 (P2) n - 1
REM
REM Run started: Mon, 28 Sep 2020 16:23:58 +0100 in /scratch/scratch/uccabz1/launch_tmp/launcher_2020-09-28-12-58-00-186889
REM CASTEP 19.11| from code version Version unavailable
REM Functional Perdew Burke Ernzerhof Relativity Koelling-Harmon Dispersion off
REM Cut-off 340.0000 eV Grid scale 1.7500 Gmax 16.5316 1/A FBSC none
REM MP grid 3 3 2 Offset 0.000 0.000 0.000 No. kpts 6 Spacing 0.07
REM Total runtime: 153565 s
REM Overall efficiency: 98.8 %
REM
REM
REM
REM compiler GCC version 4.9.2
REM options -cpp -iprefix /lustre/shared/ucl/apps/gcc/4.9.2/bin/../lib/gcc/x86_64-unknown-linux-gnu/4.9.2/ -mtune=corei7 -march=x86-64 -g -Og
REM COMMAND_LINE
REM seed -956438469 -581965374 -1279521067 1895725114 -1867144499 -1582011353 -1331887165 1551059305 72696965 1624494814 1155528684 250115432
REM
REM S 3|1.8|5|6|7|30:31:32(qc=5)
REM O 2|1.5|12|13|15|20:21(qc=5)
REM Li 1|1.3|8|9|10|10U:20(qc=5)
REM Fe 3|2.2|2.0|1.0|8|9|10|40:41:32(qc=5)
REM 
CELL 1.54180    6.74375    6.06071   12.47129   90.00000   94.62776   90.00000
LATT -1
SFAC Li O  S  Fe 
Li     1  0.1980810000000  0.3980040000000  0.4947390000000 1.0   0.08
Li     1 -0.1980810000000  0.3980040000000 -0.4947390000000 1.0   0.08
Li     1  0.5125080000000 -0.4300510000000 -0.2977130000000 1.0  -0.03
Li     1 -0.5125080000000 -0.4300510000000  0.2977130000000 1.0  -0.03
Li     1  0.3748760000000  0.5700380000000  0.0862800000000 1.0   0.01
Li     1 -0.3748760000000  0.5700380000000 -0.0862800000000 1.0   0.01
Li     1  0.0389830000000 -0.4005200000000  0.2289980000000 1.0   0.01
Li     1 -0.0389830000000 -0.4005200000000 -0.2289980000000 1.0   0.01
O      2 -0.2916190000000 -0.2833370000000 -0.2082540000000 1.0  -0.24
O      2  0.2916190000000 -0.2833370000000  0.2082540000000 1.0  -0.24
S      3  0.2750270000000 -0.5236750000000 -0.1172880000000 1.0   0.01
S      3 -0.2750270000000 -0.5236750000000  0.1172880000000 1.0   0.01
S      3  0.3887670000000  0.2259940000000 -0.2277120000000 1.0  -0.11
S      3 -0.3887670000000  0.2259940000000  0.2277120000000 1.0  -0.11
S      3 -0.2306190000000 -0.2795130000000  0.4116680000000 1.0  -0.19
S      3  0.2306190000000 -0.2795130000000 -0.4116680000000 1.0  -0.19
S      3  0.1203230000000  0.2336500000000  0.3249440000000 1.0  -0.12
S      3 -0.1203230000000  0.2336500000000 -0.3249440000000 1.0  -0.12
Fe     4 -0.1489120000000 -0.0356730000000 -0.4543520000000 1.0  -2.90
Fe     4  0.1489120000000 -0.0356730000000  0.4543520000000 1.0  -2.90
Fe     4  0.6569320000000 -0.0034150000000 -0.2536010000000 1.0  -3.36
Fe     4 -0.6569320000000 -0.0034150000000  0.2536010000000 1.0  -3.36
Fe     4 -0.1848650000000  0.0580840000000  0.3509200000000 1.0  -2.92
Fe     4  0.1848650000000  0.0580840000000 -0.3509200000000 1.0  -2.92
END
