TITL LFSO-Li3FeSO2-200911-151004-08d244 -0.0087 344.719684 -7.93136940E+003 9.00001 9.75364 21 (P-1) n - 1
REM
REM Run started: Sat, 12 Sep 2020 09:02:13 +0100 in /lustre/scratch/uccabz1/launch_tmp/launcher_2020-09-11-14-10-01-691661
REM CASTEP 20.1 from code version af48c487+ pr-geom-scf-spinfix Tue Jun 2 15:39:59 2020 +0100
REM Functional Perdew Burke Ernzerhof Relativity Koelling-Harmon Dispersion off
REM Cut-off 340.0000 eV Grid scale 1.7500 Gmax 16.5316 1/A FBSC none
REM MP grid 3 3 2 Offset 0.000 0.000 0.000 No. kpts 9 Spacing 0.07
REM Total runtime: 70396.8 s
REM Overall efficiency: 98.75 %
REM
REM
REM
REM compiler GCC version 4.9.2
REM options -cpp -iprefix /lustre/shared/ucl/apps/gcc/4.9.2/bin/../lib/gcc/x86_64-unknown-linux-gnu/4.9.2/ -mtune=corei7 -march=x86-64 -g -Og
REM COMMAND_LINE
REM seed -1747429901 1626212116 -1212289315 -234793406 1599698945 572115312 445369141 663342416 -1568353198 -1039213864 -1925441975 43455801
REM
REM S 3|1.8|5|6|7|30:31:32(qc=5)
REM O 2|1.5|12|13|15|20:21(qc=5)
REM Li 1|1.3|8|9|10|10U:20(qc=5)
REM Fe 3|2.2|2.0|1.0|8|9|10|40:41:32(qc=5)
REM 
CELL 1.54180    6.18800    7.77019    8.95468   75.61029   76.62750   56.32325
LATT -1
SFAC Li O  S  Fe 
Li     1  0.1054600000000  0.3454450000000  0.1270600000000 1.0  -0.02
Li     1 -0.1054600000000 -0.3454450000000 -0.1270600000000 1.0  -0.02
Li     1 -0.4078230000000 -0.3519380000000  0.1949040000000 1.0  -0.01
Li     1  0.4078230000000  0.3519380000000 -0.1949040000000 1.0  -0.01
Li     1  0.2028140000000 -0.1407390000000 -0.1103040000000 1.0  -0.00
Li     1 -0.2028140000000  0.1407390000000  0.1103040000000 1.0  -0.00
Li     1  0.0533100000000 -0.2255740000000  0.3337390000000 1.0  -0.00
Li     1 -0.0533100000000  0.2255740000000 -0.3337390000000 1.0  -0.00
Li     1 -0.5000000000000 -0.5000000000000  0.0000000000000 1.0  -0.00
O      2 -0.2200410000000  0.3396870000000  0.2117520000000 1.0   0.20
O      2  0.2200410000000 -0.3396870000000 -0.2117520000000 1.0   0.20
O      2 -0.5220100000000  0.2377040000000  0.0221490000000 1.0   0.17
O      2  0.5220100000000 -0.2377040000000 -0.0221490000000 1.0   0.17
O      2  0.6054010000000  0.3941970000000 -0.3813430000000 1.0   0.10
O      2 -0.6054010000000 -0.3941970000000  0.3813430000000 1.0   0.10
S      3 -0.1097000000000 -0.2171520000000  0.1160170000000 1.0   0.01
S      3  0.1097000000000  0.2171520000000 -0.1160170000000 1.0   0.01
S      3  0.0000000000000  0.0000000000000 -0.5000000000000 1.0   0.12
Fe     4  0.3133840000000 -0.3354420000000 -0.4144730000000 1.0   2.65
Fe     4 -0.3133840000000  0.3354420000000  0.4144730000000 1.0   2.65
Fe     4 -0.5000000000000  0.0000000000000  0.0000000000000 1.0   2.68
END
