TITL LFSO-Li2Fe3S3O-200912-205923-bed424 0.0086 245.832707 -8.67695763E+003 0.244395E-01 0.608873E-01 18 (Aem2) n - 1
REM
REM Run started: Sun, 13 Sep 2020 10:20:15 +0100 in /lustre/scratch/uccabz1/launch_tmp/launcher_2020-09-12-19-59-21-695551
REM CASTEP 20.1 from code version af48c487+ pr-geom-scf-spinfix Tue Jun 2 15:39:59 2020 +0100
REM Functional Perdew Burke Ernzerhof Relativity Koelling-Harmon Dispersion off
REM Cut-off 340.0000 eV Grid scale 1.7500 Gmax 16.5316 1/A FBSC none
REM MP grid 4 3 2 Offset 0.000 0.000 0.000 No. kpts 6 Spacing 0.07
REM Total runtime: 48159 s
REM Overall efficiency: 97.3333 %
REM
REM
REM
REM compiler GCC version 4.9.2
REM options -cpp -iprefix /lustre/shared/ucl/apps/gcc/4.9.2/bin/../lib/gcc/x86_64-unknown-linux-gnu/4.9.2/ -mtune=corei7 -march=x86-64 -g -Og
REM COMMAND_LINE
REM seed 1792408723 -603974548 -556299875 -610286666 1846463020 -1999495690 -1748977695 -674829647 -1216732350 -1837316429 832264141 -2090404491
REM
REM S 3|1.8|5|6|7|30:31:32(qc=5)
REM O 2|1.5|12|13|15|20:21(qc=5)
REM Li 1|1.3|8|9|10|10U:20(qc=5)
REM Fe 3|2.2|2.0|1.0|8|9|10|40:41:32(qc=5)
REM 
CELL 1.54180    3.96969    5.80482   11.05605  105.21953   90.00000   90.00000
LATT -1
SFAC Li O  S  Fe 
Li     1 -0.4028620000000 -0.2953440000000 -0.1222230000000 1.0   0.00
Li     1  0.4028620000000 -0.1731200000000  0.1222230000000 1.0   0.00
Li     1 -0.4028620000000  0.3268800000000  0.1222230000000 1.0   0.00
Li     1  0.4028620000000  0.2046560000000 -0.1222230000000 1.0   0.00
O      2  0.5000000000000  0.0154630000000  0.0000000000000 1.0   0.00
O      2 -0.5000000000000 -0.4845370000000  0.0000000000000 1.0   0.00
S      3 -0.3368350000000  0.0561110000000 -0.3458360000000 1.0   0.00
S      3  0.3368350000000  0.4019470000000  0.3458360000000 1.0   0.00
S      3 -0.3368350000000 -0.0980530000000  0.3458360000000 1.0   0.00
S      3  0.3368350000000 -0.4438890000000 -0.3458360000000 1.0   0.00
S      3  0.0000000000000  0.0161560000000  0.0000000000000 1.0   0.00
S      3  0.0000000000000 -0.4838440000000  0.0000000000000 1.0   0.00
Fe     4  0.1520880000000 -0.2272540000000  0.3907610000000 1.0   0.00
Fe     4 -0.1520880000000  0.3819850000000 -0.3907610000000 1.0   0.00
Fe     4  0.1520880000000 -0.1180150000000 -0.3907610000000 1.0   0.00
Fe     4 -0.1520880000000  0.2727460000000  0.3907610000000 1.0   0.00
Fe     4 -0.6538440000000  0.1813960000000  0.5000000000000 1.0   0.03
Fe     4  0.6538440000000 -0.3186040000000  0.5000000000000 1.0   0.03
END
