TITL LFSO-Li4FeS2O-200910-115459-017e74 -0.1077 569.386196 -8114.953132167 10.2107 11.0876 24 (P222) n - 1
REM
REM Run started: Sat, 12 Sep 2020 08:58:11 +0100 in /lustre/scratch/uccabz1/launch_tmp/launcher_2020-09-10-10-54-56-969760
REM CASTEP 20.1 from code version af48c487+ pr-geom-scf-spinfix Tue Jun 2 15:39:59 2020 +0100
REM Functional Perdew Burke Ernzerhof Relativity Koelling-Harmon Dispersion off
REM Cut-off 340.0000 eV Grid scale 1.7500 Gmax 16.5316 1/A FBSC none
REM MP grid 3 3 2 Offset 0.000 0.000 0.000 No. kpts 4 Spacing 0.07
REM Total runtime: 146630 s
REM Overall efficiency: 91.6364 %
REM
REM
REM
REM compiler GCC version 4.9.2
REM options -cpp -iprefix /lustre/shared/ucl/apps/gcc/4.9.2/bin/../lib/gcc/x86_64-unknown-linux-gnu/4.9.2/ -mtune=corei7 -march=x86-64 -g -Og
REM COMMAND_LINE
REM seed -350934619 950440888 -1915280278 -28015058 1791470064 -467297653 159909850 7292578 -1660178674 1062125009 1276374100 144203312
REM
REM S 3|1.8|5|6|7|30:31:32(qc=5)
REM O 2|1.5|12|13|15|20:21(qc=5)
REM Li 1|1.3|8|9|10|10U:20(qc=5)
REM Fe 3|2.2|2.0|1.0|8|9|10|40:41:32(qc=5)
REM 
CELL 1.54180    6.93310    6.82577   12.03174   90.00000   90.00000   90.00000
LATT -1
SFAC Li O  S  Fe 
Li     1 -0.2626220000000 -0.3027260000000  0.0232190000000 1.0  -0.00
Li     1  0.2626220000000 -0.3027260000000 -0.0232190000000 1.0  -0.00
Li     1 -0.2626220000000  0.3027260000000 -0.0232190000000 1.0  -0.00
Li     1  0.2626220000000  0.3027260000000  0.0232190000000 1.0  -0.00
Li     1  0.4046280000000  0.3396710000000  0.3964150000000 1.0  -0.04
Li     1 -0.4046280000000  0.3396710000000 -0.3964150000000 1.0  -0.04
Li     1  0.4046280000000 -0.3396710000000 -0.3964150000000 1.0  -0.04
Li     1 -0.4046280000000 -0.3396710000000  0.3964150000000 1.0  -0.04
Li     1  0.2906100000000 -0.3339580000000  0.2568950000000 1.0  -0.03
Li     1 -0.2906100000000 -0.3339580000000 -0.2568950000000 1.0  -0.03
Li     1  0.2906100000000  0.3339580000000 -0.2568950000000 1.0  -0.03
Li     1 -0.2906100000000  0.3339580000000  0.2568950000000 1.0  -0.03
O      2 -0.5000000000000  0.5000000000000 -0.2713640000000 1.0  -0.13
O      2  0.5000000000000  0.5000000000000  0.2713640000000 1.0  -0.13
O      2  0.5000000000000 -0.5000000000000 -0.5000000000000 1.0  -0.02
S      3  0.2792220000000 -0.0194940000000  0.3488790000000 1.0   0.17
S      3 -0.2792220000000 -0.0194940000000 -0.3488790000000 1.0   0.17
S      3  0.2792220000000  0.0194940000000 -0.3488790000000 1.0   0.17
S      3 -0.2792220000000  0.0194940000000  0.3488790000000 1.0   0.17
S      3 -0.5000000000000  0.5000000000000  0.1117640000000 1.0  -0.10
S      3  0.5000000000000 -0.5000000000000 -0.1117640000000 1.0  -0.10
Fe     4  0.0000000000000  0.0000000000000 -0.2670080000000 1.0   3.19
Fe     4  0.0000000000000  0.0000000000000  0.2670080000000 1.0   3.19
Fe     4  0.5000000000000  0.0000000000000  0.5000000000000 1.0   3.09
END
