TITL LFSO-Li3Fe3SO5-201002-061738-ac2aa2 0.0524 298.298219 -1.13661655E+004 17.3768 17.8636 24 (I212121) n - 1
REM
REM Run started: Fri, 02 Oct 2020 18:25:40 +0100 in /lustre/scratch/uccabz1/launch_tmp/launcher_2020-10-02-05-17-36-406989
REM CASTEP 20.1 from code version af48c487+ pr-geom-scf-spinfix Tue Jun 2 15:39:59 2020 +0100
REM Functional Perdew Burke Ernzerhof Relativity Koelling-Harmon Dispersion off
REM Cut-off 340.0000 eV Grid scale 1.7500 Gmax 16.5316 1/A FBSC none
REM MP grid 2 4 4 Offset 0.000 0.000 0.000 No. kpts 7 Spacing 0.07
REM Total runtime: 51442.4 s
REM Overall efficiency: 98 %
REM
REM
REM
REM compiler GCC version 4.9.2
REM options -cpp -iprefix /lustre/shared/ucl/apps/gcc/4.9.2/bin/../lib/gcc/x86_64-unknown-linux-gnu/4.9.2/ -mtune=corei7 -march=x86-64 -g -Og
REM COMMAND_LINE
REM seed 190689626 -418071517 -1905726276 1838872031 -390844409 1831402538 1117840923 986156224 1143386289 797799257 -243805286 -1223462044
REM
REM S 3|1.8|5|6|7|30:31:32(qc=5)
REM O 2|1.5|12|13|15|20:21(qc=5)
REM Li 1|1.3|8|9|10|10U:20(qc=5)
REM Fe 3|2.2|2.0|1.0|8|9|10|40:41:32(qc=5)
REM 
CELL 1.54180    9.94344    8.45199    8.45199   32.07513   53.96844   53.96844
LATT -1
SFAC Li O  S  Fe 
Li     1  0.2844680000000  0.1404230000000  0.1627640000000 1.0   0.02
Li     1  0.0876550000000  0.3595770000000  0.3372360000000 1.0   0.02
Li     1  0.4123450000000 -0.3372360000000 -0.3595770000000 1.0   0.02
Li     1  0.2155320000000 -0.1627640000000 -0.1404230000000 1.0   0.02
Li     1 -0.2500000000000  0.0798450000000 -0.0798450000000 1.0  -0.03
Li     1  0.2500000000000 -0.5798450000000  0.5798450000000 1.0  -0.03
O      2  0.3125890000000 -0.1857380000000  0.2766660000000 1.0   0.17
O      2 -0.0964830000000 -0.3142620000000  0.2233340000000 1.0   0.17
O      2  0.5964830000000 -0.2233340000000  0.3142620000000 1.0   0.17
O      2  0.1874110000000 -0.2766660000000  0.1857380000000 1.0   0.17
O      2  0.0895570000000  0.3711800000000 -0.0806470000000 1.0   0.25
O      2 -0.1199100000000  0.1288200000000 -0.4193530000000 1.0   0.25
O      2 -0.3800900000000  0.4193530000000 -0.1288200000000 1.0   0.25
O      2  0.4104430000000  0.0806470000000 -0.3711800000000 1.0   0.25
O      2  0.1686830000000 -0.2500000000000 -0.2500000000000 1.0   0.28
O      2  0.3313170000000  0.2500000000000  0.2500000000000 1.0   0.28
S      3 -0.1657740000000 -0.0842260000000  0.4157740000000 1.0   0.02
S      3 -0.3342260000000 -0.4157740000000  0.0842260000000 1.0   0.02
Fe     4 -0.2347390000000  0.5172760000000  0.3122390000000 1.0   2.43
Fe     4  0.0947750000000 -0.0172760000000  0.1877610000000 1.0   2.43
Fe     4  0.4052250000000 -0.1877610000000  0.0172760000000 1.0   2.43
Fe     4 -0.2652610000000 -0.3122390000000 -0.5172760000000 1.0   2.43
Fe     4 -0.0080780000000 -0.2500000000000 -0.2500000000000 1.0   2.69
Fe     4 -0.4919220000000  0.2500000000000  0.2500000000000 1.0   2.69
END
