TITL LFSO-Li4Fe2SO3-200910-215428-5fa51c 0.0708 141.667905 -4.14258027E+003 -8.14774 8.24526 10 (P3m1) n - 1
REM
REM Run started: Thu, 10 Sep 2020 23:36:50 +0100 in /lustre/scratch/uccabz1/launch_tmp/launcher_2020-09-10-20-54-26-637513
REM CASTEP 20.1 from code version af48c487+ pr-geom-scf-spinfix Tue Jun 2 15:39:59 2020 +0100
REM Functional Perdew Burke Ernzerhof Relativity Koelling-Harmon Dispersion off
REM Cut-off 340.0000 eV Grid scale 1.7500 Gmax 16.5316 1/A FBSC none
REM MP grid 3 3 3 Offset 0.000 0.000 0.000 No. kpts 8 Spacing 0.07
REM Total runtime: 6181.91 s
REM Overall efficiency: 88 %
REM
REM
REM
REM compiler GCC version 4.9.2
REM options -cpp -iprefix /lustre/shared/ucl/apps/gcc/4.9.2/bin/../lib/gcc/x86_64-unknown-linux-gnu/4.9.2/ -mtune=corei7 -march=x86-64 -g -Og
REM COMMAND_LINE
REM seed -279860915 -237004006 357143991 -294023932 -72003713 -1776205750 735740549 1550620078 1202409394 -1171939636 -766546348 -597704499
REM
REM S 3|1.8|5|6|7|30:31:32(qc=5)
REM O 2|1.5|12|13|15|20:21(qc=5)
REM Li 1|1.3|8|9|10|10U:20(qc=5)
REM Fe 3|2.2|2.0|1.0|8|9|10|40:41:32(qc=5)
REM 
CELL 1.54180    5.78654    5.78654    4.88542   90.00000   90.00000  120.00000
LATT -1
SFAC Li O  S  Fe 
Li     1 -0.1794890000000  0.1624790000000  0.0157190000000 1.0   0.02
Li     1  0.3419680000000  0.1794890000000  0.0157190000000 1.0   0.02
Li     1 -0.1624790000000 -0.3419680000000  0.0157190000000 1.0   0.02
Li     1  0.0000000000000 -0.0000000000000 -0.3316820000000 1.0   0.01
O      2  0.1785650000000 -0.1645790000000 -0.1251040000000 1.0  -0.30
O      2 -0.3431440000000 -0.1785650000000 -0.1251040000000 1.0  -0.30
O      2  0.1645790000000  0.3431440000000 -0.1251040000000 1.0  -0.30
S      3 -0.3333330000000  0.3333330000000  0.3749520000000 1.0  -0.17
Fe     4  0.3333330000000 -0.3333330000000  0.1112560000000 1.0  -3.55
Fe     4  0.3333330000000 -0.3333330000000  0.6375530000000 1.0  -3.61
END
