TITL LFSO-Li4Fe2S2O3-200911-105512-c771da -0.0001 198.215086 -4.44833714E+003 7.88876 8.11854 11 (C2) n - 1
REM
REM Run started: Fri, 11 Sep 2020 13:32:32 +0100 in /lustre/scratch/uccabz1/launch_tmp/launcher_2020-09-11-09-55-10-609842
REM CASTEP 20.1 from code version af48c487+ pr-geom-scf-spinfix Tue Jun 2 15:39:59 2020 +0100
REM Functional Perdew Burke Ernzerhof Relativity Koelling-Harmon Dispersion off
REM Cut-off 340.0000 eV Grid scale 1.7500 Gmax 16.5316 1/A FBSC none
REM MP grid 3 3 3 Offset 0.000 0.000 0.000 No. kpts 10 Spacing 0.07
REM Total runtime: 10347.9 s
REM Overall efficiency: 83.3333 %
REM
REM
REM
REM compiler GCC version 4.9.2
REM options -cpp -iprefix /lustre/shared/ucl/apps/gcc/4.9.2/bin/../lib/gcc/x86_64-unknown-linux-gnu/4.9.2/ -mtune=corei7 -march=x86-64 -g -Og
REM COMMAND_LINE
REM seed 1205209853 -1294899300 813513083 -570355824 -565704045 -616306234 232402862 156143653 -921599840 -1012573548 286201886 -1179630014
REM
REM S 3|1.8|5|6|7|30:31:32(qc=5)
REM O 2|1.5|12|13|15|20:21(qc=5)
REM Li 1|1.3|8|9|10|10U:20(qc=5)
REM Fe 3|2.2|2.0|1.0|8|9|10|40:41:32(qc=5)
REM 
CELL 1.54180    6.93552    5.73534    5.73534   81.11700  111.20592  111.20592
LATT -1
SFAC Li O  S  Fe 
Li     1  0.0082830000000  0.3245520000000  0.0731490000000 1.0   0.00
Li     1 -0.0082830000000 -0.0731490000000 -0.3245520000000 1.0   0.00
Li     1  0.4833490000000  0.4231970000000  0.2941230000000 1.0   0.01
Li     1 -0.4833490000000 -0.2941230000000 -0.4231970000000 1.0   0.01
O      2  0.2617090000000 -0.4288890000000  0.2580210000000 1.0   0.33
O      2 -0.2617090000000 -0.2580210000000  0.4288890000000 1.0   0.33
O      2  0.0000000000000  0.0028410000000 -0.0028410000000 1.0   0.23
S      3  0.3603630000000  0.0319860000000 -0.4184270000000 1.0   0.23
S      3 -0.3603630000000  0.4184270000000 -0.0319860000000 1.0   0.23
Fe     4  0.1960370000000 -0.1547580000000  0.2254430000000 1.0   3.26
Fe     4 -0.1960370000000 -0.2254430000000  0.1547580000000 1.0   3.26
END
