TITL LFSO-Li2Fe4S4O-200911-231234-196086 0.0246 455.302529 -1.10128160E+004 -28.5274 28.8624 22 (P-4) n - 1
REM
REM Run started: Sat, 12 Sep 2020 06:21:56 +0100 in /lustre/scratch/uccabz1/launch_tmp/launcher_2020-09-11-22-12-32-540355
REM CASTEP 20.1 from code version af48c487+ pr-geom-scf-spinfix Tue Jun 2 15:39:59 2020 +0100
REM Functional Perdew Burke Ernzerhof Relativity Koelling-Harmon Dispersion off
REM Cut-off 340.0000 eV Grid scale 1.7500 Gmax 16.5316 1/A FBSC none
REM MP grid 3 2 2 Offset 0.000 0.000 0.000 No. kpts 2 Spacing 0.07
REM Total runtime: 25863 s
REM Overall efficiency: 83.625 %
REM
REM
REM
REM compiler GCC version 4.9.2
REM options -cpp -iprefix /lustre/shared/ucl/apps/gcc/4.9.2/bin/../lib/gcc/x86_64-unknown-linux-gnu/4.9.2/ -mtune=corei7 -march=x86-64 -g -Og
REM COMMAND_LINE
REM seed -766603450 566404306 507244595 -1065076782 -603354854 816337542 -350054356 1116485203 1685361704 607599751 -1951234337 1796647215
REM
REM S 3|1.8|5|6|7|30:31:32(qc=5)
REM O 2|1.5|12|13|15|20:21(qc=5)
REM Li 1|1.3|8|9|10|10U:20(qc=5)
REM Fe 3|2.2|2.0|1.0|8|9|10|40:41:32(qc=5)
REM 
CELL 1.54180    6.92242    8.11000    8.11000   90.00000   90.00000   90.00000
LATT -1
SFAC Li O  S  Fe 
Li     1 -0.2619060000000 -0.5803410000000  0.2710350000000 1.0   0.06
Li     1 -0.2619060000000  0.5803410000000 -0.2710350000000 1.0   0.06
Li     1  0.2619060000000  0.2710350000000  0.5803410000000 1.0   0.06
Li     1  0.2619060000000 -0.2710350000000 -0.5803410000000 1.0   0.06
O      2 -0.2414030000000  0.5000000000000 -0.5000000000000 1.0  -0.44
O      2  0.2414030000000  0.5000000000000 -0.5000000000000 1.0  -0.44
S      3  0.4977720000000 -0.3583530000000  0.1936720000000 1.0  -0.39
S      3  0.4977720000000  0.3583530000000 -0.1936720000000 1.0  -0.39
S      3 -0.4977720000000  0.1936720000000  0.3583530000000 1.0  -0.39
S      3 -0.4977720000000 -0.1936720000000 -0.3583530000000 1.0  -0.39
S      3  0.0463680000000  0.3374470000000  0.1574710000000 1.0  -0.10
S      3  0.0463680000000 -0.3374470000000 -0.1574710000000 1.0  -0.10
S      3 -0.0463680000000  0.1574710000000 -0.3374470000000 1.0  -0.10
S      3 -0.0463680000000 -0.1574710000000  0.3374470000000 1.0  -0.10
Fe     4  0.3251000000000 -0.4223670000000 -0.2930800000000 1.0  -3.55
Fe     4  0.3251000000000  0.4223670000000  0.2930800000000 1.0  -3.55
Fe     4 -0.3251000000000 -0.2930800000000  0.4223670000000 1.0  -3.55
Fe     4 -0.3251000000000  0.2930800000000 -0.4223670000000 1.0  -3.55
Fe     4  0.0373730000000  0.0622760000000  0.1875430000000 1.0  -2.92
Fe     4  0.0373730000000 -0.0622760000000 -0.1875430000000 1.0  -2.92
Fe     4 -0.0373730000000  0.1875430000000 -0.0622760000000 1.0  -2.92
Fe     4 -0.0373730000000 -0.1875430000000  0.0622760000000 1.0  -2.92
END
