TITL LFSO-Li2Fe2S3O-200913-061407-f361e7 0.0102 231.036224 -6.95175136E+003 -3.70055 4.14694 16 (R3) n - 1
REM
REM Run started: Sun, 13 Sep 2020 18:02:48 +0100 in /lustre/scratch/uccabz1/launch_tmp/launcher_2020-09-13-05-14-05-482630
REM CASTEP 20.1 from code version af48c487+ pr-geom-scf-spinfix Tue Jun 2 15:39:59 2020 +0100
REM Functional Perdew Burke Ernzerhof Relativity Koelling-Harmon Dispersion off
REM Cut-off 340.0000 eV Grid scale 1.7500 Gmax 16.5316 1/A FBSC none
REM MP grid 3 3 3 Offset 0.000 0.000 0.000 No. kpts 6 Spacing 0.07
REM Total runtime: 42633.9 s
REM Overall efficiency: 97.5 %
REM
REM
REM
REM compiler GCC version 4.9.2
REM options -cpp -iprefix /lustre/shared/ucl/apps/gcc/4.9.2/bin/../lib/gcc/x86_64-unknown-linux-gnu/4.9.2/ -mtune=corei7 -march=x86-64 -g -Og
REM COMMAND_LINE
REM seed 148734599 -1425158855 1374566331 1891112652 -591427247 1351499165 1307494159 1873778329 -584855681 1838766888 481317556 -924640881
REM
REM S 3|1.8|5|6|7|30:31:32(qc=5)
REM O 2|1.5|12|13|15|20:21(qc=5)
REM Li 1|1.3|8|9|10|10U:20(qc=5)
REM Fe 3|2.2|2.0|1.0|8|9|10|40:41:32(qc=5)
REM 
CELL 1.54180    7.16473    7.16473    7.16473   55.19835   55.19835   55.19835
LATT -1
SFAC Li O  S  Fe 
Li     1 -0.3986860000000  0.1127800000000  0.2406240000000 1.0  -0.00
Li     1  0.1127800000000  0.2406240000000 -0.3986860000000 1.0  -0.00
Li     1  0.2406240000000 -0.3986860000000  0.1127800000000 1.0  -0.00
Li     1 -0.2073290000000 -0.2073290000000 -0.2073290000000 1.0   0.02
O      2  0.1239130000000  0.1239130000000  0.1239130000000 1.0   0.04
O      2  0.2544410000000  0.2544410000000  0.2544410000000 1.0  -0.01
S      3 -0.3159260000000 -0.2782220000000  0.2179880000000 1.0  -0.12
S      3 -0.2782220000000  0.2179880000000 -0.3159260000000 1.0  -0.12
S      3  0.2179880000000 -0.3159260000000 -0.2782220000000 1.0  -0.12
S      3 -0.0690800000000 -0.1945640000000  0.4036110000000 1.0  -0.04
S      3 -0.1945640000000  0.4036110000000 -0.0690800000000 1.0  -0.04
S      3  0.4036110000000 -0.0690800000000 -0.1945640000000 1.0  -0.04
Fe     4  0.0598040000000  0.0189070000000 -0.5532490000000 1.0  -0.54
Fe     4  0.0189070000000 -0.5532490000000  0.0598040000000 1.0  -0.54
Fe     4 -0.5532490000000  0.0598040000000  0.0189070000000 1.0  -0.54
Fe     4 -0.3541090000000 -0.3541090000000 -0.3541090000000 1.0  -1.62
END
