TITL LFSO-Li3FeSO2-200911-165647-d38c63 -0.0619 109.178138 -2.63987690E+003 4.99999 5.04756 7 (R3m) n - 1
REM
REM Run started: Fri, 11 Sep 2020 17:13:58 +0100 in /lustre/scratch/uccabz1/launch_tmp/launcher_2020-09-11-15-56-44-797963
REM CASTEP 20.1 from code version af48c487+ pr-geom-scf-spinfix Tue Jun 2 15:39:59 2020 +0100
REM Functional Perdew Burke Ernzerhof Relativity Koelling-Harmon Dispersion off
REM Cut-off 340.0000 eV Grid scale 1.7500 Gmax 16.5316 1/A FBSC none
REM MP grid 4 4 4 Offset 0.000 0.000 0.000 No. kpts 10 Spacing 0.07
REM Total runtime: 1110.66 s
REM Overall efficiency: 84 %
REM
REM
REM
REM compiler GCC version 4.9.2
REM options -cpp -iprefix /lustre/shared/ucl/apps/gcc/4.9.2/bin/../lib/gcc/x86_64-unknown-linux-gnu/4.9.2/ -mtune=corei7 -march=x86-64 -g -Og
REM COMMAND_LINE
REM seed -622753866 990022459 754463650 355453211 383276009 1968241711 351257511 1612522537 1856577175 886904710 -169120472 405164585
REM
REM S 3|1.8|5|6|7|30:31:32(qc=5)
REM O 2|1.5|12|13|15|20:21(qc=5)
REM Li 1|1.3|8|9|10|10U:20(qc=5)
REM Fe 3|2.2|2.0|1.0|8|9|10|40:41:32(qc=5)
REM 
CELL 1.54180    4.80361    4.80361    4.80361   84.07279   84.07279   84.07279
LATT -1
SFAC Li O  S  Fe 
Li     1  0.2084900000000  0.2084900000000 -0.3825020000000 1.0  -0.05
Li     1  0.2084900000000 -0.3825020000000  0.2084900000000 1.0  -0.05
Li     1 -0.3825020000000  0.2084900000000  0.2084900000000 1.0  -0.05
O      2  0.2143810000000  0.2143810000000  0.2143810000000 1.0   0.76
O      2  0.4754400000000  0.4754400000000  0.4754400000000 1.0   0.40
S      3 -0.0984440000000 -0.0984440000000 -0.0984440000000 1.0   0.26
Fe     4 -0.3346960000000 -0.3346960000000 -0.3346960000000 1.0   3.74
END
