TITL LFSO-Li2Fe2SO2-200913-014431-0343a1 0.0531 315.648327 -9.91844917E+003 6.77634 19.9400 21 (F222) n - 1
REM
REM Run started: Sun, 13 Sep 2020 15:05:48 +0100 in /lustre/scratch/uccabz1/launch_tmp/launcher_2020-09-13-13-42-21-900452
REM CASTEP 20.1 from code version af48c487+ pr-geom-scf-spinfix Tue Jun 2 15:39:59 2020 +0100
REM Functional Perdew Burke Ernzerhof Relativity Koelling-Harmon Dispersion off
REM Cut-off 340.0000 eV Grid scale 1.7500 Gmax 16.5316 1/A FBSC none
REM MP grid 3 3 2 Offset 0.000 0.000 0.000 No. kpts 6 Spacing 0.07
REM Total runtime: 38084 s
REM Overall efficiency: 97.6 %
REM
REM
REM
REM compiler GCC version 4.9.2
REM options -cpp -iprefix /lustre/shared/ucl/apps/gcc/4.9.2/bin/../lib/gcc/x86_64-unknown-linux-gnu/4.9.2/ -mtune=corei7 -march=x86-64 -g -Og
REM COMMAND_LINE
REM seed 1128654705 351119472 -949406806 1144634207 -1432168687 -525999886 -2031109629 -1019359900 -75223923 -1647947279 1943443151 -1676552834
REM
REM S 3|1.8|5|6|7|30:31:32(qc=5)
REM O 2|1.5|12|13|15|20:21(qc=5)
REM Li 1|1.3|8|9|10|10U:20(qc=5)
REM Fe 3|2.2|2.0|1.0|8|9|10|40:41:32(qc=5)
REM 
CELL 1.54180    7.34956    7.34956    8.22435   99.23579   99.23579  129.85131
LATT -1
SFAC Li O  S  Fe 
Li     1  0.2097740000000  0.0057480000000  0.3761580000000 1.0  -0.04
Li     1 -0.3704110000000 -0.1663840000000 -0.3761580000000 1.0  -0.04
Li     1 -0.0057480000000 -0.2097740000000 -0.3761580000000 1.0  -0.04
Li     1  0.1663840000000  0.3704110000000  0.3761580000000 1.0  -0.04
Li     1 -0.1826080000000  0.1826080000000  0.0000000000000 1.0   0.02
Li     1  0.1826080000000 -0.1826080000000  0.0000000000000 1.0   0.02
O      2 -0.1073580000000  0.0733230000000  0.1789200000000 1.0  -0.00
O      2 -0.1055960000000 -0.2862780000000 -0.1789200000000 1.0  -0.00
O      2 -0.0733230000000  0.1073580000000 -0.1789200000000 1.0  -0.00
O      2  0.2862780000000  0.1055960000000  0.1789200000000 1.0  -0.00
O      2 -0.2746680000000 -0.2746680000000  0.4506640000000 1.0   0.24
O      2  0.2746680000000  0.2746680000000 -0.4506640000000 1.0   0.24
S      3 -0.3666100000000  0.3666100000000  0.0000000000000 1.0   0.02
S      3  0.3666100000000 -0.3666100000000  0.0000000000000 1.0   0.02
S      3  0.2500000000000 -0.2500000000000  0.5000000000000 1.0   0.13
Fe     4 -0.4438230000000 -0.6021440000000 -0.2676660000000 1.0   3.17
Fe     4 -0.3344780000000 -0.1761570000000  0.2676660000000 1.0   3.17
Fe     4  0.6021440000000  0.4438230000000  0.2676660000000 1.0   3.17
Fe     4  0.1761570000000  0.3344780000000 -0.2676660000000 1.0   3.17
Fe     4  0.2077380000000  0.2077380000000  0.0000000000000 1.0  -3.21
Fe     4 -0.2077380000000 -0.2077380000000  0.0000000000000 1.0  -3.21
END
