TITL LFSO-Li4Fe2S3O2-200911-063703-c83eba -0.0065 420.780213 -8.62902213E+003 13.7948 14.4288 22 (C2) n - 1
REM
REM Run started: Sat, 12 Sep 2020 07:05:15 +0100 in /lustre/scratch/uccabz1/launch_tmp/launcher_2020-09-12-05-22-49-120939
REM CASTEP 20.1 from code version af48c487+ pr-geom-scf-spinfix Tue Jun 2 15:39:59 2020 +0100
REM Functional Perdew Burke Ernzerhof Relativity Koelling-Harmon Dispersion off
REM Cut-off 340.0000 eV Grid scale 1.7500 Gmax 16.5316 1/A FBSC none
REM MP grid 3 3 3 Offset 0.000 0.000 0.000 No. kpts 10 Spacing 0.07
REM Total runtime: 88402.6 s
REM Overall efficiency: 62.3333 %
REM
REM
REM
REM compiler GCC version 4.9.2
REM options -cpp -iprefix /lustre/shared/ucl/apps/gcc/4.9.2/bin/../lib/gcc/x86_64-unknown-linux-gnu/4.9.2/ -mtune=corei7 -march=x86-64 -g -Og
REM COMMAND_LINE
REM seed 1238156904 -1725752104 -1445579344 2140490791 -621980907 -79146806 825597834 569953016 -1445618033 1966688330 -1232028286 802697347
REM
REM S 3|1.8|5|6|7|30:31:32(qc=5)
REM O 2|1.5|12|13|15|20:21(qc=5)
REM Li 1|1.3|8|9|10|10U:20(qc=5)
REM Fe 3|2.2|2.0|1.0|8|9|10|40:41:32(qc=5)
REM 
CELL 1.54180   11.57103   11.57103    7.19299   74.09576  128.60816  141.48556
LATT -1
SFAC Li O  S  Fe 
Li     1  0.4013800000000 -0.2468020000000  0.0561320000000 1.0  -0.00
Li     1 -0.3029340000000  0.3452480000000 -0.0561320000000 1.0  -0.00
Li     1  0.2287770000000  0.1300910000000 -0.3647590000000 1.0   0.03
Li     1  0.4948500000000 -0.4064650000000  0.3647590000000 1.0   0.03
Li     1 -0.0144240000000 -0.6718870000000 -0.5205460000000 1.0  -0.03
Li     1 -0.1513400000000 -0.4938780000000  0.5205460000000 1.0  -0.03
Li     1  0.1863720000000 -0.1430290000000 -0.0791320000000 1.0   0.03
Li     1 -0.0638970000000  0.2655040000000  0.0791320000000 1.0   0.03
O      2 -0.0355470000000  0.4103250000000  0.2121520000000 1.0   0.33
O      2  0.1981730000000 -0.2476990000000 -0.2121520000000 1.0   0.33
O      2 -0.5438340000000 -0.2678850000000  0.3773380000000 1.0   0.23
O      2  0.3547770000000  0.0788280000000 -0.3773380000000 1.0   0.23
S      3 -0.4195760000000 -0.0978360000000 -0.2043130000000 1.0   0.17
S      3  0.1064770000000 -0.2152640000000  0.2043130000000 1.0   0.17
S      3 -0.1074160000000  0.0528150000000  0.4421030000000 1.0   0.11
S      3 -0.3892890000000  0.4504810000000 -0.4421030000000 1.0   0.11
S      3  0.4570140000000  0.2018450000000  0.1155980000000 1.0   0.14
S      3  0.0862470000000  0.3414160000000 -0.1155980000000 1.0   0.14
Fe     4  0.2554860000000 -0.3125720000000  0.3652880000000 1.0   3.12
Fe     4  0.3221400000000 -0.1098020000000 -0.3652880000000 1.0   3.12
Fe     4 -0.2274390000000  0.0134080000000 -0.3722810000000 1.0   2.77
Fe     4  0.3856890000000  0.1448410000000  0.3722810000000 1.0   2.77
END
