TITL LFSO-Li3Fe3S5O-200929-032748-94141c -0.1837 492.883373 -1.02918084E+004 10.7967 11.7009 24 (Pm) n - 1
REM
REM Run started: Wed, 30 Sep 2020 18:38:31 +0100 in /lustre/scratch/uccabz1/launch_tmp/launcher_2020-09-30-08-37-51-333047
REM CASTEP 20.1 from code version af48c487+ pr-geom-scf-spinfix Tue Jun 2 15:39:59 2020 +0100
REM Functional Perdew Burke Ernzerhof Relativity Koelling-Harmon Dispersion off
REM Cut-off 340.0000 eV Grid scale 1.7500 Gmax 16.5316 1/A FBSC none
REM MP grid 4 2 2 Offset 0.000 0.000 0.000 No. kpts 4 Spacing 0.07
REM Total runtime: 116375 s
REM Overall efficiency: 96.7143 %
REM
REM
REM
REM compiler GCC version 4.9.2
REM options -cpp -iprefix /lustre/shared/ucl/apps/gcc/4.9.2/bin/../lib/gcc/x86_64-unknown-linux-gnu/4.9.2/ -mtune=corei7 -march=x86-64 -g -Og
REM COMMAND_LINE
REM seed 223064652 1149173534 990162968 233657060 634407156 1099268576 1114503075 -1934372685 -1309143314 -2018781153 -1905318921 1221412934
REM
REM S 3|1.8|5|6|7|30:31:32(qc=5)
REM O 2|1.5|12|13|15|20:21(qc=5)
REM Li 1|1.3|8|9|10|10U:20(qc=5)
REM Fe 3|2.2|2.0|1.0|8|9|10|40:41:32(qc=5)
REM 
CELL 1.54180    3.88215   10.43801   12.26170   90.00000   90.00000   97.26132
LATT -1
SFAC Li O  S  Fe 
Li     1 -0.4195930000000 -0.0461450000000  0.1531160000000 1.0   0.02
Li     1 -0.4195930000000 -0.0461450000000 -0.1531160000000 1.0   0.02
Li     1  0.0060130000000 -0.2084970000000 -0.1897460000000 1.0   0.02
Li     1  0.0060130000000 -0.2084970000000  0.1897460000000 1.0   0.02
Li     1 -0.0752670000000  0.2286200000000  0.2310230000000 1.0   0.01
Li     1 -0.0752670000000  0.2286200000000 -0.2310230000000 1.0   0.01
O      2 -0.0229270000000  0.3928930000000 -0.1721520000000 1.0   0.40
O      2 -0.0229270000000  0.3928930000000  0.1721520000000 1.0   0.40
S      3 -0.0657350000000 -0.4333640000000 -0.3761010000000 1.0  -0.04
S      3 -0.0657350000000 -0.4333640000000  0.3761010000000 1.0  -0.04
S      3  0.1084810000000  0.0390950000000  0.0864250000000 1.0  -0.00
S      3  0.1084810000000  0.0390950000000 -0.0864250000000 1.0  -0.00
S      3 -0.1575040000000  0.0037350000000 -0.3572040000000 1.0   0.03
S      3 -0.1575040000000  0.0037350000000  0.3572040000000 1.0   0.03
S      3  0.4738240000000 -0.3017820000000  0.1425010000000 1.0   0.12
S      3  0.4738240000000 -0.3017820000000 -0.1425010000000 1.0   0.12
S      3  0.4205400000000  0.2835310000000  0.3662420000000 1.0   0.00
S      3  0.4205400000000  0.2835310000000 -0.3662420000000 1.0   0.00
Fe     4  0.1523160000000 -0.4633290000000 -0.2162420000000 1.0   2.54
Fe     4  0.1523160000000 -0.4633290000000  0.2162420000000 1.0   2.54
Fe     4 -0.6270500000000  0.0875100000000  0.4094610000000 1.0   1.73
Fe     4 -0.6270500000000  0.0875100000000 -0.4094610000000 1.0   1.73
Fe     4  0.4090580000000  0.4769130000000 -0.4070900000000 1.0   0.58
Fe     4  0.4090580000000  0.4769130000000  0.4070900000000 1.0   0.58
END
