TITL LFSO-Li6FeS3O-200910-033921-9923bf 0.7657 436.236236 -6.81871158E+003 6.27957 6.79284 22 (C2) n - 1
REM
REM Run started: Thu, 10 Sep 2020 15:29:54 +0100 in /lustre/scratch/uccabz1/launch_tmp/launcher_2020-09-10-13-57-16-757069
REM CASTEP 20.1 from code version af48c487+ pr-geom-scf-spinfix Tue Jun 2 15:39:59 2020 +0100
REM Functional Perdew Burke Ernzerhof Relativity Koelling-Harmon Dispersion off
REM Cut-off 340.0000 eV Grid scale 1.7500 Gmax 16.5316 1/A FBSC none
REM MP grid 4 2 2 Offset 0.000 0.000 0.000 No. kpts 6 Spacing 0.07
REM Total runtime: 42866.6 s
REM Overall efficiency: 86.5385 %
REM
REM
REM
REM compiler GCC version 4.9.2
REM options -cpp -iprefix /lustre/shared/ucl/apps/gcc/4.9.2/bin/../lib/gcc/x86_64-unknown-linux-gnu/4.9.2/ -mtune=corei7 -march=x86-64 -g -Og
REM COMMAND_LINE
REM seed -1327216031 1950582511 738611177 -342556491 157566687 -52628417 765545430 801185856 -467056858 543997334 -768991157 1673868713
REM
REM S 3|1.8|5|6|7|30:31:32(qc=5)
REM O 2|1.5|12|13|15|20:21(qc=5)
REM Li 1|1.3|8|9|10|10U:20(qc=5)
REM Fe 3|2.2|2.0|1.0|8|9|10|40:41:32(qc=5)
REM 
CELL 1.54180    5.26327    9.79293    9.79293   99.56846  108.11282  108.11282
LATT -1
SFAC Li O  S  Fe 
Li     1  0.3324150000000 -0.3615170000000  0.1007440000000 1.0   0.01
Li     1 -0.3324150000000 -0.1007440000000  0.3615170000000 1.0   0.01
Li     1  0.2800770000000  0.0074290000000  0.3361260000000 1.0  -0.01
Li     1 -0.2800770000000 -0.3361260000000 -0.0074290000000 1.0  -0.01
Li     1 -0.1743940000000 -0.0337860000000 -0.3495380000000 1.0   0.01
Li     1  0.1743940000000  0.3495380000000  0.0337860000000 1.0   0.01
Li     1 -0.3149790000000 -0.4497880000000  0.2697950000000 1.0  -0.08
Li     1  0.3149790000000 -0.2697950000000  0.4497880000000 1.0  -0.08
Li     1  0.2128240000000  0.4264010000000 -0.1988990000000 1.0  -0.05
Li     1 -0.2128240000000  0.1988990000000 -0.4264010000000 1.0  -0.05
Li     1 -0.3197840000000  0.3914910000000  0.0051180000000 1.0   0.01
Li     1  0.3197840000000 -0.0051180000000 -0.3914910000000 1.0   0.01
O      2 -0.4528010000000 -0.0088830000000  0.4948980000000 1.0   0.00
O      2  0.4528010000000 -0.4948980000000  0.0088830000000 1.0   0.00
S      3  0.1872370000000 -0.1519020000000  0.1161310000000 1.0   0.00
S      3 -0.1872370000000 -0.1161310000000  0.1519020000000 1.0   0.00
S      3  0.2664300000000  0.1883280000000 -0.2220980000000 1.0   0.04
S      3 -0.2664300000000  0.2220980000000 -0.1883280000000 1.0   0.04
S      3 -0.1122450000000 -0.2393560000000 -0.4823330000000 1.0   0.04
S      3  0.1122450000000  0.4823330000000  0.2393560000000 1.0   0.04
Fe     4 -0.1077250000000 -0.4541910000000 -0.4387800000000 1.0   3.16
Fe     4  0.1077250000000  0.4387800000000  0.4541910000000 1.0   3.16
END
