TITL LFSO-Li5FeS2O2-200920-234414-a9049b -0.1534 283.759039 -6.69603823E+003 7.99899 8.15409 20 (P-1) n - 1
REM
REM Run started: Mon, 21 Sep 2020 14:08:12 +0100 in /lustre/scratch/uccabz1/launch_tmp/launcher_2020-09-20-22-44-13-282489
REM CASTEP 20.1 from code version af48c487+ pr-geom-scf-spinfix Tue Jun 2 15:39:59 2020 +0100
REM Functional Perdew Burke Ernzerhof Relativity Koelling-Harmon Dispersion off
REM Cut-off 340.0000 eV Grid scale 1.7500 Gmax 16.5316 1/A FBSC none
REM MP grid 3 4 3 Offset 0.000 0.000 0.000 No. kpts 18 Spacing 0.07
REM Total runtime: 60348.8 s
REM Overall efficiency: 98.3333 %
REM
REM
REM
REM compiler GCC version 4.9.2
REM options -cpp -iprefix /lustre/shared/ucl/apps/gcc/4.9.2/bin/../lib/gcc/x86_64-unknown-linux-gnu/4.9.2/ -mtune=corei7 -march=x86-64 -g -Og
REM COMMAND_LINE
REM seed -1632562762 -835119138 1700311018 1514545137 117302290 -1613447046 -730327042 -1259491563 -1322288411 1545630366 1444435244 1146428725
REM
REM S 3|1.8|5|6|7|30:31:32(qc=5)
REM O 2|1.5|12|13|15|20:21(qc=5)
REM Li 1|1.3|8|9|10|10U:20(qc=5)
REM Fe 3|2.2|2.0|1.0|8|9|10|40:41:32(qc=5)
REM 
CELL 1.54180    9.57532    7.69953   11.03944   35.90857   41.65908   38.78112
LATT -1
SFAC Li O  S  Fe 
Li     1  0.1489090000000  0.3034130000000  0.0684750000000 1.0   0.02
Li     1 -0.1489090000000 -0.3034130000000 -0.0684750000000 1.0   0.02
Li     1 -0.5285570000000  0.1009030000000 -0.2031800000000 1.0   0.02
Li     1  0.5285570000000 -0.1009030000000  0.2031800000000 1.0   0.02
Li     1 -0.2714510000000 -0.7596900000000  0.3721920000000 1.0  -0.01
Li     1  0.2714510000000  0.7596900000000 -0.3721920000000 1.0  -0.01
Li     1  0.0930410000000  0.1087290000000 -0.0004600000000 1.0   0.06
Li     1 -0.0930410000000 -0.1087290000000  0.0004600000000 1.0   0.06
Li     1  0.0717300000000 -0.3884310000000  0.6005690000000 1.0  -0.02
Li     1 -0.0717300000000  0.3884310000000 -0.6005690000000 1.0  -0.02
O      2  0.1550370000000  0.4779420000000 -0.2018960000000 1.0   0.02
O      2 -0.1550370000000 -0.4779420000000  0.2018960000000 1.0   0.02
O      2  0.2882000000000  0.1409260000000  0.3426510000000 1.0   0.31
O      2 -0.2882000000000 -0.1409260000000 -0.3426510000000 1.0   0.31
S      3 -0.3447490000000 -0.7228990000000 -0.2199120000000 1.0   0.15
S      3  0.3447490000000  0.7228990000000  0.2199120000000 1.0   0.15
S      3  0.2242470000000  0.0371620000000 -0.2747950000000 1.0   0.19
S      3 -0.2242470000000 -0.0371620000000  0.2747950000000 1.0   0.19
Fe     4  0.6261500000000 -0.2653850000000 -0.3579920000000 1.0   3.25
Fe     4 -0.6261500000000  0.2653850000000  0.3579920000000 1.0   3.25
END
