TITL LFSO-Li4Fe3SO4-200928-005413-93cf91 -0.0041 186.072754 -5.44542728E+003 11.4510 11.6957 12 (C2) n - 1
REM
REM Run started: Mon, 28 Sep 2020 09:01:53 +0100 in /scratch/scratch/uccabz1/launch_tmp/launcher_2020-09-27-23-54-10-982434
REM CASTEP 19.11| from code version Version unavailable
REM Functional Perdew Burke Ernzerhof Relativity Koelling-Harmon Dispersion off
REM Cut-off 340.0000 eV Grid scale 1.7500 Gmax 16.5316 1/A FBSC none
REM MP grid 5 3 2 Offset 0.000 0.000 0.000 No. kpts 13 Spacing 0.07
REM Total runtime: 29344.4 s
REM Overall efficiency: 98 %
REM
REM
REM
REM compiler GCC version 4.9.2
REM options -cpp -iprefix /scratch/UCL/applications/gcc/4.9.2/bin/../lib/gcc/x86_64-unknown-linux-gnu/4.9.2/ -mtune=corei7 -march=x86-64 -g -O2
REM COMMAND_LINE
REM seed -145491661 -872635834 1918753540 1857622718 1109266670 -1979861283 -1918720342 353818108 -446507952 211397095 -424859018 -444366188
REM
REM S 3|1.8|5|6|7|30:31:32(qc=5)
REM O 2|1.5|12|13|15|20:21(qc=5)
REM Li 1|1.3|8|9|10|10U:20(qc=5)
REM Fe 3|2.2|2.0|1.0|8|9|10|40:41:32(qc=5)
REM 
CELL 1.54180    3.57982    7.45028    9.30251   66.39400  103.30162  125.06840
LATT -1
SFAC Li O  S  Fe 
Li     1  0.3769410000000  0.0320160000000  0.2214160000000 1.0  -0.02
Li     1 -0.3769410000000 -0.2534310000000  0.2214160000000 1.0  -0.02
Li     1  0.0242620000000  0.2847780000000  0.0489610000000 1.0  -0.00
Li     1 -0.0242620000000 -0.3337390000000  0.0489610000000 1.0  -0.00
O      2 -0.4234160000000 -0.2275770000000 -0.0051150000000 1.0   0.33
O      2  0.4234160000000  0.2326920000000 -0.0051150000000 1.0   0.33
O      2 -0.0518820000000  0.0713540000000 -0.7264360000000 1.0   0.29
O      2  0.0518820000000 -0.3449180000000 -0.7264360000000 1.0   0.29
S      3  0.5000000000000  0.1596630000000 -0.3193270000000 1.0   0.14
Fe     4  0.0998480000000  0.1270780000000  0.4521410000000 1.0   3.32
Fe     4 -0.0998480000000  0.4207810000000  0.4521410000000 1.0   3.32
Fe     4  0.0000000000000  0.0632020000000 -0.1264040000000 1.0   3.50
END
