TITL LFSO-LiFeSO-200909-041232-3adf3d 0.0353 200.409496 -7.21991238E+003 5.63177 9.14285 16 (Cc) n - 1
REM
REM Run started: Wed, 09 Sep 2020 09:51:28 +0100 in /lustre/scratch/uccabz1/launch_tmp/launcher_2020-09-09-03-12-30-282176
REM CASTEP 20.1 from code version af48c487+ pr-geom-scf-spinfix Tue Jun 2 15:39:59 2020 +0100
REM Functional Perdew Burke Ernzerhof Relativity Koelling-Harmon Dispersion off
REM Cut-off 340.0000 eV Grid scale 1.7500 Gmax 16.5316 1/A FBSC none
REM MP grid 4 4 3 Offset 0.000 0.000 0.000 No. kpts 16 Spacing 0.07
REM Total runtime: 21000.5 s
REM Overall efficiency: 83.5714 %
REM
REM
REM
REM compiler GCC version 4.9.2
REM options -cpp -iprefix /lustre/shared/ucl/apps/gcc/4.9.2/bin/../lib/gcc/x86_64-unknown-linux-gnu/4.9.2/ -mtune=corei7 -march=x86-64 -g -Og
REM COMMAND_LINE
REM seed 532508168 962751807 1596389961 990649937 1109347605 -427554263 898996191 76112106 -948653991 -567856910 -117145056 -57534233
REM
REM S 3|1.8|5|6|7|30:31:32(qc=5)
REM O 2|1.5|12|13|15|20:21(qc=5)
REM Li 1|1.3|8|9|10|10U:20(qc=5)
REM Fe 3|2.2|2.0|1.0|8|9|10|40:41:32(qc=5)
REM 
CELL 1.54180    6.45279    6.45279   10.56418   42.60383   42.60383   60.47474
LATT -1
SFAC Li O  S  Fe 
Li     1 -0.3994440000000  0.2278550000000  0.2381130000000 1.0  -0.00
Li     1 -0.2721450000000  0.1005560000000 -0.2618870000000 1.0  -0.00
Li     1  0.1808280000000 -0.4603240000000 -0.2981180000000 1.0  -0.03
Li     1  0.0396760000000 -0.3191720000000  0.2018820000000 1.0  -0.03
O      2  0.2852750000000  0.1160150000000 -0.1055090000000 1.0   0.10
O      2 -0.3839850000000 -0.2147250000000  0.3944910000000 1.0   0.10
O      2 -0.1737000000000  0.2380080000000  0.4620710000000 1.0   0.09
O      2 -0.2619920000000  0.3263000000000 -0.0379290000000 1.0   0.09
S      3 -0.4646730000000 -0.4593480000000 -0.1318400000000 1.0   0.10
S      3  0.0406520000000  0.0353270000000  0.3681600000000 1.0   0.10
S      3  0.2179160000000 -0.5363830000000 -0.5528980000000 1.0   0.09
S      3 -0.0363830000000 -0.2820840000000 -0.0528980000000 1.0   0.09
Fe     4  0.5714820000000 -0.1409640000000  0.1998650000000 1.0   3.33
Fe     4  0.3590360000000  0.0714820000000 -0.3001350000000 1.0   3.33
Fe     4 -0.2421640000000 -0.2731870000000 -0.4792960000000 1.0  -0.87
Fe     4  0.2268130000000  0.2578360000000  0.0207040000000 1.0  -0.87
END
