TITL LFSO-Li2Fe2S3O-200913-021344-426cd1 0.0588 279.394659 -6.95188167E+003 -6.77839 14.2221 16 (R3) n - 1
REM
REM Run started: Sun, 13 Sep 2020 07:58:07 +0100 in /lustre/scratch/uccabz1/launch_tmp/launcher_2020-09-13-01-13-42-924198
REM CASTEP 20.1 from code version af48c487+ pr-geom-scf-spinfix Tue Jun 2 15:39:59 2020 +0100
REM Functional Perdew Burke Ernzerhof Relativity Koelling-Harmon Dispersion off
REM Cut-off 340.0000 eV Grid scale 1.7500 Gmax 16.5316 1/A FBSC none
REM MP grid 3 3 3 Offset 0.000 0.000 0.000 No. kpts 6 Spacing 0.07
REM Total runtime: 20880 s
REM Overall efficiency: 97.375 %
REM
REM
REM
REM compiler GCC version 4.9.2
REM options -cpp -iprefix /lustre/shared/ucl/apps/gcc/4.9.2/bin/../lib/gcc/x86_64-unknown-linux-gnu/4.9.2/ -mtune=corei7 -march=x86-64 -g -Og
REM COMMAND_LINE
REM seed 1546944631 1469784146 -420711704 -1579699993 1635448363 -1926331990 -27546543 -940399368 -1900978141 2022751810 510748451 -1997343215
REM
REM S 3|1.8|5|6|7|30:31:32(qc=5)
REM O 2|1.5|12|13|15|20:21(qc=5)
REM Li 1|1.3|8|9|10|10U:20(qc=5)
REM Fe 3|2.2|2.0|1.0|8|9|10|40:41:32(qc=5)
REM 
CELL 1.54180    7.16254    7.16254    7.52642   61.58685   61.58685   60.00000
LATT -1
SFAC Li O  S  Fe 
Li     1 -0.5370650000000 -0.0875820000000 -0.2000950000000 1.0  -0.05
Li     1 -0.1752580000000 -0.5370650000000 -0.2000950000000 1.0  -0.05
Li     1 -0.0875820000000 -0.1752580000000 -0.2000950000000 1.0  -0.05
Li     1  0.4485420000000  0.4485420000000 -0.3456260000000 1.0  -0.00
O      2  0.2129860000000  0.2129860000000  0.3610430000000 1.0  -0.30
O      2 -0.2840050000000 -0.2840050000000 -0.1479850000000 1.0   0.59
S      3  0.1856980000000 -0.2916400000000  0.4192100000000 1.0  -0.18
S      3 -0.3132680000000  0.1856980000000  0.4192100000000 1.0  -0.18
S      3 -0.2916400000000 -0.3132680000000  0.4192100000000 1.0  -0.18
S      3  0.2122450000000 -0.3145300000000 -0.0514150000000 1.0  -0.02
S      3  0.1537000000000  0.2122450000000 -0.0514150000000 1.0  -0.02
S      3 -0.3145300000000  0.1537000000000 -0.0514150000000 1.0  -0.02
Fe     4 -0.4627190000000  0.0717510000000  0.2988230000000 1.0  -3.15
Fe     4  0.0921460000000 -0.4627190000000  0.2988230000000 1.0  -3.15
Fe     4  0.0717510000000  0.0921460000000  0.2988230000000 1.0  -3.15
Fe     4 -0.0245710000000 -0.0245710000000  0.0737140000000 1.0   3.14
END
