TITL LFSO-Li4Fe3SO4-200928-063941-86ad43 -0.0828 312.707355 -1.08914899E+004 23.8593 24.3103 24 (Pc) n - 1
REM
REM Run started: Mon, 28 Sep 2020 21:15:16 +0100 in /scratch/scratch/uccabz1/launch_tmp/launcher_2020-09-28-05-39-40-280499
REM CASTEP 19.11| from code version Version unavailable
REM Functional Perdew Burke Ernzerhof Relativity Koelling-Harmon Dispersion off
REM Cut-off 340.0000 eV Grid scale 1.7500 Gmax 16.5316 1/A FBSC none
REM MP grid 5 2 2 Offset 0.000 0.000 0.000 No. kpts 6 Spacing 0.07
REM Total runtime: 54576.3 s
REM Overall efficiency: 98.7143 %
REM
REM
REM
REM compiler GCC version 4.9.2
REM options -cpp -iprefix /scratch/UCL/applications/gcc/4.9.2/bin/../lib/gcc/x86_64-unknown-linux-gnu/4.9.2/ -mtune=corei7 -march=x86-64 -g -O2
REM COMMAND_LINE
REM seed 162708593 -1973523292 1692991130 847833799 30085603 -1152287300 -185385803 613726672 -82524274 98798547 -2128804451 -649739987
REM
REM S 3|1.8|5|6|7|30:31:32(qc=5)
REM O 2|1.5|12|13|15|20:21(qc=5)
REM Li 1|1.3|8|9|10|10U:20(qc=5)
REM Fe 3|2.2|2.0|1.0|8|9|10|40:41:32(qc=5)
REM 
CELL 1.54180    3.30241   10.12893   10.80657  120.10825   90.00000   90.00000
LATT -1
SFAC Li O  S  Fe 
Li     1  0.3618570000000 -0.1862730000000 -0.3020470000000 1.0  -0.07
Li     1 -0.3618570000000  0.3137270000000  0.1979530000000 1.0  -0.07
Li     1  0.1930360000000 -0.4646640000000  0.3310940000000 1.0  -0.12
Li     1 -0.1930360000000  0.0353360000000 -0.1689060000000 1.0  -0.12
Li     1  0.0875710000000 -0.1133450000000  0.2688330000000 1.0  -0.05
Li     1 -0.0875710000000  0.3866550000000 -0.2311670000000 1.0  -0.05
Li     1  0.0792120000000  0.0736210000000 -0.3654500000000 1.0   0.01
Li     1 -0.0792120000000 -0.4263790000000  0.1345500000000 1.0   0.01
O      2 -0.1377550000000 -0.1143910000000 -0.3698570000000 1.0   0.27
O      2  0.1377550000000  0.3856090000000  0.1301430000000 1.0   0.27
O      2 -0.1357130000000  0.2265100000000 -0.1744810000000 1.0   0.26
O      2  0.1357130000000 -0.2734900000000  0.3255190000000 1.0   0.26
O      2  0.2886290000000  0.3755330000000  0.3774270000000 1.0   0.30
O      2 -0.2886290000000 -0.1244670000000 -0.1225730000000 1.0   0.30
O      2  0.0496820000000  0.0056250000000  0.1710170000000 1.0   0.32
O      2 -0.0496820000000 -0.4943750000000 -0.3289830000000 1.0   0.32
S      3  0.3901200000000 -0.4219000000000 -0.0430220000000 1.0   0.25
S      3 -0.3901200000000  0.0781000000000  0.4569780000000 1.0   0.25
Fe     4  0.5354920000000 -0.0259820000000  0.0692640000000 1.0   3.55
Fe     4 -0.5354920000000  0.4740180000000 -0.4307360000000 1.0   3.55
Fe     4  0.3342720000000  0.3112510000000 -0.0533480000000 1.0   3.68
Fe     4 -0.3342720000000 -0.1887490000000  0.4466520000000 1.0   3.68
Fe     4 -0.1380760000000 -0.3120670000000 -0.1289840000000 1.0   3.51
Fe     4  0.1380760000000  0.1879330000000  0.3710160000000 1.0   3.51
END
