TITL LFSO-Li4Fe3S2O3-201001-123603-2f3698 0.0062 337.588534 -1.06232822E+004 20.2274 20.5406 24 (R3) n - 1
REM
REM Run started: Thu, 01 Oct 2020 22:46:31 +0100 in /lustre/scratch/uccabz1/launch_tmp/launcher_2020-10-01-11-36-02-046733
REM CASTEP 20.1 from code version af48c487+ pr-geom-scf-spinfix Tue Jun 2 15:39:59 2020 +0100
REM Functional Perdew Burke Ernzerhof Relativity Koelling-Harmon Dispersion off
REM Cut-off 340.0000 eV Grid scale 1.7500 Gmax 16.5316 1/A FBSC none
REM MP grid 3 3 3 Offset 0.000 0.000 0.000 No. kpts 6 Spacing 0.07
REM Total runtime: 38207.2 s
REM Overall efficiency: 97.3636 %
REM
REM
REM
REM compiler GCC version 4.9.2
REM options -cpp -iprefix /lustre/shared/ucl/apps/gcc/4.9.2/bin/../lib/gcc/x86_64-unknown-linux-gnu/4.9.2/ -mtune=corei7 -march=x86-64 -g -Og
REM COMMAND_LINE
REM seed -692057338 -1947868876 -1964271731 -433129147 700814324 146526228 -820275897 632754116 -349676562 -1464358890 1755281832 -572831231
REM
REM S 3|1.8|5|6|7|30:31:32(qc=5)
REM O 2|1.5|12|13|15|20:21(qc=5)
REM Li 1|1.3|8|9|10|10U:20(qc=5)
REM Fe 3|2.2|2.0|1.0|8|9|10|40:41:32(qc=5)
REM 
CELL 1.54180    7.15513    7.15513    7.15513  102.11696  102.11696  102.11696
LATT -1
SFAC Li O  S  Fe 
Li     1  0.3292900000000  0.2147050000000 -0.3931900000000 1.0   0.02
Li     1  0.2147050000000 -0.3931900000000  0.3292900000000 1.0   0.02
Li     1 -0.3931900000000  0.3292900000000  0.2147050000000 1.0   0.02
Li     1  0.4445960000000 -0.0384740000000 -0.6437810000000 1.0  -0.01
Li     1 -0.0384740000000 -0.6437810000000  0.4445960000000 1.0  -0.01
Li     1 -0.6437810000000  0.4445960000000 -0.0384740000000 1.0  -0.01
Li     1  0.4723010000000  0.4723010000000  0.4723010000000 1.0   0.01
Li     1 -0.0135590000000 -0.0135590000000 -0.0135590000000 1.0   0.01
O      2  0.3491700000000 -0.1026540000000 -0.4051340000000 1.0   0.26
O      2 -0.1026540000000 -0.4051340000000  0.3491700000000 1.0   0.26
O      2 -0.4051340000000  0.3491700000000 -0.1026540000000 1.0   0.26
O      2 -0.4529690000000  0.2337230000000  0.4659890000000 1.0   0.28
O      2  0.2337230000000  0.4659890000000 -0.4529690000000 1.0   0.28
O      2  0.4659890000000 -0.4529690000000  0.2337230000000 1.0   0.28
S      3  0.0211190000000  0.1475340000000 -0.2726260000000 1.0   0.09
S      3  0.1475340000000 -0.2726260000000  0.0211190000000 1.0   0.09
S      3 -0.2726260000000  0.0211190000000  0.1475340000000 1.0   0.09
S      3 -0.2768430000000 -0.2768430000000 -0.2768430000000 1.0   0.04
Fe     4  0.2257790000000 -0.3019520000000 -0.2830770000000 1.0   3.40
Fe     4 -0.3019520000000 -0.2830770000000  0.2257790000000 1.0   3.40
Fe     4 -0.2830770000000  0.2257790000000 -0.3019520000000 1.0   3.40
Fe     4 -0.1825310000000 -0.4395280000000 -0.0532650000000 1.0   2.68
Fe     4 -0.4395280000000 -0.0532650000000 -0.1825310000000 1.0   2.68
Fe     4 -0.0532650000000 -0.1825310000000 -0.4395280000000 1.0   2.68
END
