TITL LFSO-Li4Fe2S3O-200911-041911-c5cd6c 0.0697 159.443036 -3.87523279E+003 -7.96973 8.06956 10 (Pm) n - 1
REM
REM Run started: Fri, 11 Sep 2020 06:13:58 +0100 in /lustre/scratch/uccabz1/launch_tmp/launcher_2020-09-11-03-19-10-178823
REM CASTEP 20.1 from code version af48c487+ pr-geom-scf-spinfix Tue Jun 2 15:39:59 2020 +0100
REM Functional Perdew Burke Ernzerhof Relativity Koelling-Harmon Dispersion off
REM Cut-off 340.0000 eV Grid scale 1.7500 Gmax 16.5316 1/A FBSC none
REM MP grid 5 3 2 Offset 0.000 0.000 0.000 No. kpts 8 Spacing 0.07
REM Total runtime: 7231.98 s
REM Overall efficiency: 96.1111 %
REM
REM
REM
REM compiler GCC version 4.9.2
REM options -cpp -iprefix /lustre/shared/ucl/apps/gcc/4.9.2/bin/../lib/gcc/x86_64-unknown-linux-gnu/4.9.2/ -mtune=corei7 -march=x86-64 -g -Og
REM COMMAND_LINE
REM seed -1439708610 -845890871 747991522 -79235845 -1510067416 -1899326991 511983826 -155694180 -445286471 1700761451 -107844892 300797221
REM
REM S 3|1.8|5|6|7|30:31:32(qc=5)
REM O 2|1.5|12|13|15|20:21(qc=5)
REM Li 1|1.3|8|9|10|10U:20(qc=5)
REM Fe 3|2.2|2.0|1.0|8|9|10|40:41:32(qc=5)
REM 
CELL 1.54180    3.97260    6.89522    7.19421   90.00000   90.00000  125.99251
LATT -1
SFAC Li O  S  Fe 
Li     1 -0.0369100000000  0.3487340000000  0.1681530000000 1.0   0.04
Li     1 -0.0369100000000  0.3487340000000 -0.1681530000000 1.0   0.04
Li     1 -0.2451360000000 -0.3688350000000  0.3100330000000 1.0  -0.02
Li     1 -0.2451360000000 -0.3688350000000 -0.3100330000000 1.0  -0.02
O      2 -0.4981250000000  0.3848400000000  0.5000000000000 1.0  -0.34
S      3 -0.4640510000000 -0.0742890000000 -0.2559910000000 1.0  -0.34
S      3 -0.4640510000000 -0.0742890000000  0.2559910000000 1.0  -0.34
S      3  0.5242370000000  0.4087690000000 -0.0000000000000 1.0  -0.13
Fe     4  0.2192490000000  0.1070880000000 -0.3342310000000 1.0  -3.44
Fe     4  0.2192490000000  0.1070880000000  0.3342310000000 1.0  -3.44
END
