TITL LFSO-LiFe3S4O-200909-074620-7e8d57 0.0606 347.012791 -8.88452403E+003 7.45061 8.12086 18 (Pm) n - 1
REM
REM Run started: Wed, 09 Sep 2020 23:40:47 +0100 in /lustre/scratch/uccabz1/launch_tmp/launcher_2020-09-09-06-46-18-999577
REM CASTEP 20.1 from code version af48c487+ pr-geom-scf-spinfix Tue Jun 2 15:39:59 2020 +0100
REM Functional Perdew Burke Ernzerhof Relativity Koelling-Harmon Dispersion off
REM Cut-off 340.0000 eV Grid scale 1.7500 Gmax 16.5316 1/A FBSC none
REM MP grid 4 2 2 Offset 0.000 0.000 0.000 No. kpts 4 Spacing 0.07
REM Total runtime: 62670.5 s
REM Overall efficiency: 97.9231 %
REM
REM
REM
REM compiler GCC version 4.9.2
REM options -cpp -iprefix /lustre/shared/ucl/apps/gcc/4.9.2/bin/../lib/gcc/x86_64-unknown-linux-gnu/4.9.2/ -mtune=corei7 -march=x86-64 -g -Og
REM COMMAND_LINE
REM seed 572608682 1881269084 1044574252 -765703767 -460722775 356203899 657441914 -2104491225 -227275241 -539651799 -1217987268 -1421463629
REM
REM S 3|1.8|5|6|7|30:31:32(qc=5)
REM O 2|1.5|12|13|15|20:21(qc=5)
REM Li 1|1.3|8|9|10|10U:20(qc=5)
REM Fe 3|2.2|2.0|1.0|8|9|10|40:41:32(qc=5)
REM 
CELL 1.54180    4.61571    7.79439    9.66280   90.00000   93.42900   90.00000
LATT -1
SFAC Li O  S  Fe 
Li     1  0.1840860000000 -0.2244570000000  0.2705950000000 1.0   0.00
Li     1  0.1840860000000  0.2244570000000  0.2705950000000 1.0   0.00
O      2  0.3237170000000  0.1870470000000 -0.1078950000000 1.0   0.02
O      2  0.3237170000000 -0.1870470000000 -0.1078950000000 1.0   0.02
S      3 -0.1222230000000  0.2846840000000  0.0764970000000 1.0  -0.04
S      3 -0.1222230000000 -0.2846840000000  0.0764970000000 1.0  -0.04
S      3 -0.3303020000000  0.2641140000000  0.2687540000000 1.0   0.03
S      3 -0.3303020000000 -0.2641140000000  0.2687540000000 1.0   0.03
S      3 -0.1724810000000 -0.2169990000000 -0.2914940000000 1.0  -0.01
S      3 -0.1724810000000  0.2169990000000 -0.2914940000000 1.0  -0.01
S      3  0.2937780000000  0.2873610000000 -0.4813790000000 1.0   0.03
S      3  0.2937780000000 -0.2873610000000 -0.4813790000000 1.0   0.03
Fe     4 -0.3103820000000  0.1418940000000 -0.0902130000000 1.0   0.51
Fe     4 -0.3103820000000 -0.1418940000000 -0.0902130000000 1.0   0.51
Fe     4 -0.2083660000000  0.3484680000000  0.4906990000000 1.0   2.62
Fe     4 -0.2083660000000 -0.3484680000000  0.4906990000000 1.0   2.62
Fe     4  0.3080940000000 -0.1377200000000 -0.2858450000000 1.0   0.59
Fe     4  0.3080940000000  0.1377200000000 -0.2858450000000 1.0   0.59
END
