TITL LFSO-Li3FeSO2-200911-152021-0f0d0f -0.0505 130.511643 -2.64264915E+003 4.15956 4.22853 7 (Amm2) n - 1
REM
REM Run started: Fri, 11 Sep 2020 16:01:37 +0100 in /lustre/scratch/uccabz1/launch_tmp/launcher_2020-09-11-14-20-20-229166
REM CASTEP 20.1 from code version af48c487+ pr-geom-scf-spinfix Tue Jun 2 15:39:59 2020 +0100
REM Functional Perdew Burke Ernzerhof Relativity Koelling-Harmon Dispersion off
REM Cut-off 340.0000 eV Grid scale 1.7500 Gmax 16.5316 1/A FBSC none
REM MP grid 5 3 3 Offset 0.000 0.000 0.000 No. kpts 12 Spacing 0.07
REM Total runtime: 2572.26 s
REM Overall efficiency: 91 %
REM
REM
REM
REM compiler GCC version 4.9.2
REM options -cpp -iprefix /lustre/shared/ucl/apps/gcc/4.9.2/bin/../lib/gcc/x86_64-unknown-linux-gnu/4.9.2/ -mtune=corei7 -march=x86-64 -g -Og
REM COMMAND_LINE
REM seed 556762607 -1428989874 -2012437501 -571359940 -1824952194 -1371387124 -1000702974 -728359584 -1116371137 -1553268895 -1772412718 -2141195526
REM
REM S 3|1.8|5|6|7|30:31:32(qc=5)
REM O 2|1.5|12|13|15|20:21(qc=5)
REM Li 1|1.3|8|9|10|10U:20(qc=5)
REM Fe 3|2.2|2.0|1.0|8|9|10|40:41:32(qc=5)
REM 
CELL 1.54180    2.93534    6.72099    6.72099  100.16761   90.00000   90.00000
LATT -1
SFAC Li O  S  Fe 
Li     1  0.0000000000000 -0.5370650000000 -0.0528680000000 1.0   0.02
Li     1  0.0000000000000  0.0528680000000  0.5370650000000 1.0   0.02
Li     1  0.0000000000000 -0.2622220000000  0.2622220000000 1.0   0.03
O      2  0.5000000000000 -0.3499910000000  0.0433580000000 1.0   0.28
O      2  0.5000000000000 -0.0433580000000  0.3499910000000 1.0   0.28
S      3 -0.5000000000000  0.1459610000000 -0.1459610000000 1.0   0.11
Fe     4  0.5000000000000 -0.0719550000000  0.0719550000000 1.0   3.42
END
