TITL LFSO-Li3Fe3S4O2-201002-133628-814dc8 -0.0164 406.791309 -1.05614994E+004 -12.1589 13.5415 24 (P1) n - 1
REM
REM Run started: Fri, 02 Oct 2020 23:49:07 +0100 in /scratch/scratch/mmm0366/launch_tmp/launcher_2020-10-02-12-36-26-620665
REM CASTEP 19.11| from code version Version unavailable
REM Functional Perdew Burke Ernzerhof Relativity Koelling-Harmon Dispersion off
REM Cut-off 340.0000 eV Grid scale 1.7500 Gmax 16.5316 1/A FBSC none
REM MP grid 2 2 2 Offset 0.000 0.000 0.000 No. kpts 2 Spacing 0.07
REM Total runtime: 39404.7 s
REM Overall efficiency: 82.3333 %
REM
REM
REM
REM compiler GCC version 4.9.2
REM options -cpp -iprefix /scratch/UCL/applications/gcc/4.9.2/bin/../lib/gcc/x86_64-unknown-linux-gnu/4.9.2/ -mtune=corei7 -march=x86-64 -g -O2
REM COMMAND_LINE
REM seed -1682392872 210885504 896535660 -811214673 819663411 -1568699082 1708958006 -409167660 -636257820 888035759 1586407030 2076459153
REM
REM S 3|1.8|5|6|7|30:31:32(qc=5)
REM O 2|1.5|12|13|15|20:21(qc=5)
REM Li 1|1.3|8|9|10|10U:20(qc=5)
REM Fe 3|2.2|2.0|1.0|8|9|10|40:41:32(qc=5)
REM 
CELL 1.54180    7.50437    7.50437    7.50437   80.44797   80.44797   80.44797
LATT -1
SFAC Li O  S  Fe 
Li     1 -0.5544590000000 -0.2110950000000  0.3524280000000 1.0   0.01
Li     1 -0.2110950000000  0.3524280000000 -0.5544590000000 1.0   0.01
Li     1  0.3524280000000 -0.5544590000000 -0.2110950000000 1.0   0.01
Li     1 -0.0899400000000 -0.1925070000000  0.1722310000000 1.0  -0.01
Li     1 -0.1925070000000  0.1722310000000 -0.0899400000000 1.0  -0.01
Li     1  0.1722310000000 -0.0899400000000 -0.1925070000000 1.0  -0.01
O      2 -0.0784330000000  0.3792360000000 -0.1012290000000 1.0  -0.13
O      2  0.3792360000000 -0.1012290000000 -0.0784330000000 1.0  -0.13
O      2 -0.1012290000000 -0.0784330000000  0.3792360000000 1.0  -0.13
O      2 -0.1153080000000 -0.1153080000000 -0.1153080000000 1.0  -0.14
S      3  0.2079930000000 -0.3118670000000 -0.4244490000000 1.0  -0.10
S      3 -0.3118670000000 -0.4244490000000  0.2079930000000 1.0  -0.10
S      3 -0.4244490000000  0.2079930000000 -0.3118670000000 1.0  -0.10
S      3  0.0890100000000  0.2466980000000 -0.4616650000000 1.0   0.07
S      3  0.2466980000000 -0.4616650000000  0.0890100000000 1.0   0.07
S      3 -0.4616650000000  0.0890100000000  0.2466980000000 1.0   0.07
S      3  0.2644610000000  0.2644610000000  0.2644610000000 1.0   0.15
S      3 -0.3148310000000 -0.3148310000000 -0.3148310000000 1.0   0.04
Fe     4 -0.5178330000000 -0.3250630000000  0.0199480000000 1.0  -2.07
Fe     4 -0.3250630000000  0.0199480000000 -0.5178330000000 1.0  -2.07
Fe     4  0.0199480000000 -0.5178330000000 -0.3250630000000 1.0  -2.07
Fe     4 -0.0770700000000 -0.1704390000000 -0.3838590000000 1.0  -1.84
Fe     4 -0.1704390000000 -0.3838590000000 -0.0770700000000 1.0  -1.84
Fe     4 -0.3838590000000 -0.0770700000000 -0.1704390000000 1.0  -1.84
END
