TITL LFSO-Li4Fe2SO3-200910-220615-34810d -0.0513 137.956275 -4.14418942E+003 7.58097 7.81369 10 (P2) n - 1
REM
REM Run started: Thu, 10 Sep 2020 23:23:30 +0100 in /lustre/scratch/uccabz1/launch_tmp/launcher_2020-09-10-21-06-13-913125
REM CASTEP 20.1 from code version af48c487+ pr-geom-scf-spinfix Tue Jun 2 15:39:59 2020 +0100
REM Functional Perdew Burke Ernzerhof Relativity Koelling-Harmon Dispersion off
REM Cut-off 340.0000 eV Grid scale 1.7500 Gmax 16.5316 1/A FBSC none
REM MP grid 5 3 3 Offset 0.000 0.000 0.000 No. kpts 15 Spacing 0.07
REM Total runtime: 5056.61 s
REM Overall efficiency: 95.1111 %
REM
REM
REM
REM compiler GCC version 4.9.2
REM options -cpp -iprefix /lustre/shared/ucl/apps/gcc/4.9.2/bin/../lib/gcc/x86_64-unknown-linux-gnu/4.9.2/ -mtune=corei7 -march=x86-64 -g -Og
REM COMMAND_LINE
REM seed -1435931074 267485237 -302296197 1997976563 729598251 -1516790027 -1912327232 626994728 -577707982 -1022751320 -733218353 732719528
REM
REM S 3|1.8|5|6|7|30:31:32(qc=5)
REM O 2|1.5|12|13|15|20:21(qc=5)
REM Li 1|1.3|8|9|10|10U:20(qc=5)
REM Fe 3|2.2|2.0|1.0|8|9|10|40:41:32(qc=5)
REM 
CELL 1.54180    3.03837    7.06916    6.58850  102.87227   90.00000   90.00000
LATT -1
SFAC Li O  S  Fe 
Li     1 -0.4030860000000  0.2923260000000 -0.5434570000000 1.0  -0.07
Li     1 -0.4030860000000 -0.2923260000000  0.5434570000000 1.0  -0.07
Li     1 -0.3430280000000  0.1581570000000 -0.1556660000000 1.0  -0.01
Li     1 -0.3430280000000 -0.1581570000000  0.1556660000000 1.0  -0.01
O      2  0.1546310000000  0.3040730000000 -0.0352760000000 1.0   0.35
O      2  0.1546310000000 -0.3040730000000  0.0352760000000 1.0   0.35
O      2  0.1195870000000 -0.5000000000000  0.5000000000000 1.0   0.20
S      3  0.0801710000000 -0.0000000000000  0.5000000000000 1.0   0.04
Fe     4  0.1302720000000  0.5066330000000  0.2089790000000 1.0   3.40
Fe     4  0.1302720000000 -0.5066330000000 -0.2089790000000 1.0   3.40
END
