TITL LFSO-LiFe3S4O-200909-065242-17d860 0.0063 391.517245 -8.88923143E+003 7.40375 8.63283 18 (I212121) n - 1
REM
REM Run started: Wed, 09 Sep 2020 19:02:19 +0100 in /lustre/scratch/uccabz1/launch_tmp/launcher_2020-09-09-05-52-40-437428
REM CASTEP 20.1 from code version af48c487+ pr-geom-scf-spinfix Tue Jun 2 15:39:59 2020 +0100
REM Functional Perdew Burke Ernzerhof Relativity Koelling-Harmon Dispersion off
REM Cut-off 340.0000 eV Grid scale 1.7500 Gmax 16.5316 1/A FBSC none
REM MP grid 2 3 3 Offset 0.000 0.000 0.000 No. kpts 6 Spacing 0.07
REM Total runtime: 43996 s
REM Overall efficiency: 98 %
REM
REM
REM
REM compiler GCC version 4.9.2
REM options -cpp -iprefix /lustre/shared/ucl/apps/gcc/4.9.2/bin/../lib/gcc/x86_64-unknown-linux-gnu/4.9.2/ -mtune=corei7 -march=x86-64 -g -Og
REM COMMAND_LINE
REM seed 1130874990 730194441 1882918013 989456751 -301845889 221391094 -718719396 -1526212468 -1568783902 -1501178378 -1345434718 -99108435
REM
REM S 3|1.8|5|6|7|30:31:32(qc=5)
REM O 2|1.5|12|13|15|20:21(qc=5)
REM Li 1|1.3|8|9|10|10U:20(qc=5)
REM Fe 3|2.2|2.0|1.0|8|9|10|40:41:32(qc=5)
REM 
CELL 1.54180   10.10481    5.93632    8.77137  109.77894  125.17046   90.00000
LATT -1
SFAC Li O  S  Fe 
Li     1 -0.2180860000000 -0.4680860000000 -0.4361710000000 1.0   0.00
Li     1 -0.2819140000000 -0.0319140000000  0.4361720000000 1.0   0.00
O      2 -0.1547770000000 -0.2500000000000  0.5000000000000 1.0   0.33
O      2 -0.3452230000000  0.2500000000000  0.5000000000000 1.0   0.33
S      3  0.2650260000000 -0.1165290000000  0.2478000000000 1.0  -0.08
S      3 -0.0172270000000 -0.1356710000000  0.2478000000000 1.0  -0.08
S      3  0.2349740000000 -0.3643290000000 -0.2478000000000 1.0  -0.08
S      3 -0.4827730000000 -0.3834710000000 -0.2478000000000 1.0  -0.08
S      3 -0.4645230000000  0.1225630000000 -0.2594550000000 1.0  -0.04
S      3  0.2050680000000  0.1179820000000 -0.2594550000000 1.0  -0.04
S      3 -0.0354770000000  0.3820180000000  0.2594550000000 1.0  -0.04
S      3  0.2949320000000  0.3774370000000  0.2594550000000 1.0  -0.04
Fe     4  0.1599870000000  0.1906920000000  0.3257180000000 1.0   0.78
Fe     4  0.1657310000000 -0.3649750000000  0.3257180000000 1.0   0.78
Fe     4  0.3400130000000 -0.1350250000000 -0.3257180000000 1.0   0.78
Fe     4  0.3342690000000  0.3093080000000 -0.3257180000000 1.0   0.78
Fe     4  0.4826390000000  0.2500000000000  0.5000000000000 1.0   2.05
Fe     4  0.0173610000000 -0.2500000000000  0.5000000000000 1.0   2.05
END
