TITL LFSO-Li2Fe3SO3-200912-151937-2994b5 -0.0054 203.036936 -9.21652952E+003 21.6413 21.7454 18 (Pcc2) n - 1
REM
REM Run started: Sat, 12 Sep 2020 17:00:33 +0100 in /lustre/scratch/uccabz1/launch_tmp/launcher_2020-09-12-14-19-35-208363
REM CASTEP 20.1 from code version af48c487+ pr-geom-scf-spinfix Tue Jun 2 15:39:59 2020 +0100
REM Functional Perdew Burke Ernzerhof Relativity Koelling-Harmon Dispersion off
REM Cut-off 340.0000 eV Grid scale 1.7500 Gmax 16.5316 1/A FBSC none
REM MP grid 5 2 2 Offset 0.000 0.000 0.000 No. kpts 3 Spacing 0.07
REM Total runtime: 6118.29 s
REM Overall efficiency: 94.7143 %
REM
REM
REM
REM compiler GCC version 4.9.2
REM options -cpp -iprefix /lustre/shared/ucl/apps/gcc/4.9.2/bin/../lib/gcc/x86_64-unknown-linux-gnu/4.9.2/ -mtune=corei7 -march=x86-64 -g -Og
REM COMMAND_LINE
REM seed -2076737827 108502371 -425959604 -1033673086 -72283541 2055952184 -1534753260 -1949296267 -1614737523 1638355087 1547785731 -60877663
REM
REM S 3|1.8|5|6|7|30:31:32(qc=5)
REM O 2|1.5|12|13|15|20:21(qc=5)
REM Li 1|1.3|8|9|10|10U:20(qc=5)
REM Fe 3|2.2|2.0|1.0|8|9|10|40:41:32(qc=5)
REM 
CELL 1.54180    3.30441    7.83249    7.84479   90.00000   90.00000   90.00000
LATT -1
SFAC Li O  S  Fe 
Li     1 -0.4256870000000 -0.3344320000000 -0.0659200000000 1.0  -0.07
Li     1  0.4256870000000  0.3344320000000 -0.0659200000000 1.0  -0.07
Li     1  0.4256870000000 -0.3344320000000  0.4340800000000 1.0  -0.07
Li     1 -0.4256870000000  0.3344320000000  0.4340800000000 1.0  -0.07
O      2 -0.4372390000000  0.3031620000000 -0.3163140000000 1.0   0.29
O      2  0.4372390000000 -0.3031620000000 -0.3163140000000 1.0   0.29
O      2  0.4372390000000  0.3031620000000  0.1836860000000 1.0   0.29
O      2 -0.4372390000000 -0.3031620000000  0.1836860000000 1.0   0.29
O      2  0.0000000000000 -0.5000000000000 -0.0661260000000 1.0   0.20
O      2  0.0000000000000 -0.5000000000000 -0.5661260000000 1.0   0.20
S      3  0.0000000000000  0.0000000000000 -0.0700780000000 1.0   0.26
S      3  0.0000000000000  0.0000000000000  0.4299220000000 1.0   0.26
Fe     4  0.0776590000000 -0.1561280000000  0.1792420000000 1.0   3.31
Fe     4 -0.0776590000000  0.1561280000000  0.1792420000000 1.0   3.31
Fe     4 -0.0776590000000 -0.1561280000000 -0.3207580000000 1.0   3.31
Fe     4  0.0776590000000  0.1561280000000 -0.3207580000000 1.0   3.31
Fe     4  0.0000000000000  0.5000000000000 -0.3159030000000 1.0   3.31
Fe     4  0.0000000000000  0.5000000000000  0.1840970000000 1.0   3.31
END
