TITL LFSO-Li3FeS2O-200911-173011-6b1e14 -0.0354 265.340052 -5.01716681E+003 3.85397 4.12523 14 (P3) n - 1
REM
REM Run started: Fri, 11 Sep 2020 23:55:21 +0100 in /lustre/scratch/uccabz1/launch_tmp/launcher_2020-09-11-16-30-09-379380
REM CASTEP 20.1 from code version af48c487+ pr-geom-scf-spinfix Tue Jun 2 15:39:59 2020 +0100
REM Functional Perdew Burke Ernzerhof Relativity Koelling-Harmon Dispersion off
REM Cut-off 340.0000 eV Grid scale 1.7500 Gmax 16.5316 1/A FBSC none
REM MP grid 3 3 3 Offset 0.000 0.000 0.000 No. kpts 8 Spacing 0.07
REM Total runtime: 23190.6 s
REM Overall efficiency: 89.375 %
REM
REM
REM
REM compiler GCC version 4.9.2
REM options -cpp -iprefix /lustre/shared/ucl/apps/gcc/4.9.2/bin/../lib/gcc/x86_64-unknown-linux-gnu/4.9.2/ -mtune=corei7 -march=x86-64 -g -Og
REM COMMAND_LINE
REM seed -1981614676 2093293016 -48109659 470756863 450661016 -480565341 854204442 904761388 1652562787 1896948095 1698776338 385572705
REM
REM S 3|1.8|5|6|7|30:31:32(qc=5)
REM O 2|1.5|12|13|15|20:21(qc=5)
REM Li 1|1.3|8|9|10|10U:20(qc=5)
REM Fe 3|2.2|2.0|1.0|8|9|10|40:41:32(qc=5)
REM 
CELL 1.54180    7.04507    7.04507    6.17308   90.00000   90.00000  120.00000
LATT -1
SFAC Li O  S  Fe 
Li     1 -0.1015600000000  0.1200330000000  0.3549290000000 1.0   0.02
Li     1 -0.1200330000000 -0.2215940000000  0.3549290000000 1.0   0.02
Li     1  0.2215940000000  0.1015600000000  0.3549290000000 1.0   0.02
Li     1 -0.2206720000000 -0.1210080000000 -0.1508630000000 1.0  -0.01
Li     1  0.1210080000000 -0.0996640000000 -0.1508630000000 1.0  -0.01
Li     1  0.0996640000000  0.2206720000000 -0.1508630000000 1.0  -0.01
O      2  0.0000000000000 -0.0000000000000 -0.3865670000000 1.0   0.04
O      2  0.0000000000000 -0.0000000000000  0.0979650000000 1.0   0.02
S      3  0.4851170000000  0.5055170000000 -0.5714870000000 1.0   0.12
S      3 -0.5055170000000 -0.0204000000000 -0.5714870000000 1.0   0.12
S      3  0.0204000000000 -0.4851170000000 -0.5714870000000 1.0   0.12
S      3  0.3333330000000 -0.3333330000000 -0.0647110000000 1.0   0.10
Fe     4  0.3333330000000 -0.3333330000000  0.2574240000000 1.0   1.24
Fe     4  0.3333330000000 -0.3333330000000  0.6115690000000 1.0   2.03
END
