TITL LFSO-LiFe3SO4-200909-003545-934be8 -0.0245 111.861522 -4.84384397E+003 8.87335 9.04966 9 (I222) n - 1
REM
REM Run started: Wed, 09 Sep 2020 01:42:47 +0100 in /lustre/scratch/uccabz1/launch_tmp/launcher_2020-09-08-23-35-43-002665
REM CASTEP 20.1 from code version af48c487+ pr-geom-scf-spinfix Tue Jun 2 15:39:59 2020 +0100
REM Functional Perdew Burke Ernzerhof Relativity Koelling-Harmon Dispersion off
REM Cut-off 340.0000 eV Grid scale 1.7500 Gmax 16.5316 1/A FBSC none
REM MP grid 4 4 4 Offset 0.000 0.000 0.000 No. kpts 20 Spacing 0.07
REM Total runtime: 5798.06 s
REM Overall efficiency: 95.6667 %
REM
REM
REM
REM compiler GCC version 4.9.2
REM options -cpp -iprefix /lustre/shared/ucl/apps/gcc/4.9.2/bin/../lib/gcc/x86_64-unknown-linux-gnu/4.9.2/ -mtune=corei7 -march=x86-64 -g -Og
REM COMMAND_LINE
REM seed 171945325 -899630886 888406764 764317673 -1109191105 -1397199473 180885216 -1612987655 1857145130 1970100695 1380671331 -189843875
REM
REM S 3|1.8|5|6|7|30:31:32(qc=5)
REM O 2|1.5|12|13|15|20:21(qc=5)
REM Li 1|1.3|8|9|10|10U:20(qc=5)
REM Fe 3|2.2|2.0|1.0|8|9|10|40:41:32(qc=5)
REM 
CELL 1.54180    4.95201    5.81202    5.81202   49.19569   64.78517   64.78517
LATT -1
SFAC Li O  S  Fe 
Li     1  0.5000000000000 -0.5000000000000 -0.5000000000000 1.0  -0.02
O      2  0.0088890000000 -0.3959640000000  0.0250030000000 1.0   0.22
O      2 -0.3620720000000  0.3959640000000 -0.0250030000000 1.0   0.22
O      2  0.3620720000000  0.0250030000000 -0.3959640000000 1.0   0.22
O      2 -0.0088890000000 -0.0250030000000  0.3959640000000 1.0   0.22
S      3  0.5000000000000  0.0000000000000  0.0000000000000 1.0   0.08
Fe     4  0.2636960000000  0.2363040000000  0.2363040000000 1.0   2.16
Fe     4 -0.2636960000000 -0.2363040000000 -0.2363040000000 1.0   2.16
Fe     4 -0.0000000000000  0.0000000000000  0.0000000000000 1.0   3.59
END
