TITL LFSO-Li3FeS2O-200911-195645-3a215f -0.0673 279.043952 -5.01910152E+003 -6.06976 6.43112 14 (P21) n - 1
REM
REM Run started: Sat, 12 Sep 2020 01:46:39 +0100 in /lustre/scratch/uccabz1/launch_tmp/launcher_2020-09-11-18-56-43-421862
REM CASTEP 20.1 from code version af48c487+ pr-geom-scf-spinfix Tue Jun 2 15:39:59 2020 +0100
REM Functional Perdew Burke Ernzerhof Relativity Koelling-Harmon Dispersion off
REM Cut-off 340.0000 eV Grid scale 1.7500 Gmax 16.5316 1/A FBSC none
REM MP grid 4 3 2 Offset 0.000 0.000 0.000 No. kpts 8 Spacing 0.07
REM Total runtime: 22434.1 s
REM Overall efficiency: 90.0833 %
REM
REM
REM
REM compiler GCC version 4.9.2
REM options -cpp -iprefix /lustre/shared/ucl/apps/gcc/4.9.2/bin/../lib/gcc/x86_64-unknown-linux-gnu/4.9.2/ -mtune=corei7 -march=x86-64 -g -Og
REM COMMAND_LINE
REM seed -1862880429 463689300 1539494990 1683721634 822151313 -820012935 -1483809588 128310855 1949913799 288243517 1499163564 -1190709401
REM
REM S 3|1.8|5|6|7|30:31:32(qc=5)
REM O 2|1.5|12|13|15|20:21(qc=5)
REM Li 1|1.3|8|9|10|10U:20(qc=5)
REM Fe 3|2.2|2.0|1.0|8|9|10|40:41:32(qc=5)
REM 
CELL 1.54180    6.04357    6.01377   10.74002   90.00000  134.36742   90.00000
LATT -1
SFAC Li O  S  Fe 
Li     1 -0.0448750000000 -0.5132510000000  0.3897950000000 1.0  -0.04
Li     1  0.0448750000000 -0.0132510000000 -0.3897950000000 1.0  -0.04
Li     1 -0.2585540000000  0.2036800000000 -0.1040340000000 1.0   0.01
Li     1  0.2585540000000 -0.2963200000000  0.1040340000000 1.0   0.01
Li     1  0.2920960000000  0.1418310000000  0.1085790000000 1.0  -0.01
Li     1 -0.2920960000000 -0.3581690000000 -0.1085790000000 1.0  -0.01
O      2 -0.0515220000000 -0.0728440000000  0.0393250000000 1.0  -0.20
O      2  0.0515220000000  0.4271560000000 -0.0393250000000 1.0  -0.20
S      3  0.2294550000000  0.3656270000000 -0.3253870000000 1.0  -0.08
S      3 -0.2294550000000 -0.1343730000000  0.3253870000000 1.0  -0.08
S      3 -0.2872280000000  0.3190380000000  0.1168510000000 1.0  -0.06
S      3  0.2872280000000 -0.1809620000000 -0.1168510000000 1.0  -0.06
Fe     4 -0.2260820000000 -0.0476870000000  0.1238860000000 1.0  -2.65
Fe     4  0.2260820000000 -0.5476870000000 -0.1238860000000 1.0  -2.65
END
