TITL LFSO-Li2FeSO-200912-024311-9073f5 0.0405 209.061605 -6.01170141E+003 0.188728 1.05597 15 (P2) n - 1
REM
REM Run started: Sun, 13 Sep 2020 11:04:12 +0100 in /lustre/scratch/uccabz1/launch_tmp/launcher_2020-09-12-01-43-09-826305
REM CASTEP 20.1 from code version af48c487+ pr-geom-scf-spinfix Tue Jun 2 15:39:59 2020 +0100
REM Functional Perdew Burke Ernzerhof Relativity Koelling-Harmon Dispersion off
REM Cut-off 340.0000 eV Grid scale 1.7500 Gmax 16.5316 1/A FBSC none
REM MP grid 7 3 2 Offset 0.000 0.000 0.000 No. kpts 11 Spacing 0.07
REM Total runtime: 113961 s
REM Overall efficiency: 87.9167 %
REM
REM
REM
REM compiler GCC version 4.9.2
REM options -cpp -iprefix /lustre/shared/ucl/apps/gcc/4.9.2/bin/../lib/gcc/x86_64-unknown-linux-gnu/4.9.2/ -mtune=corei7 -march=x86-64 -g -Og
REM COMMAND_LINE
REM seed -1097423172 2065256755 -1425614878 2104501536 1512981836 -410134515 -1313121475 -1452172966 -1031402866 -116934069 1766296398 454795461
REM
REM S 3|1.8|5|6|7|30:31:32(qc=5)
REM O 2|1.5|12|13|15|20:21(qc=5)
REM Li 1|1.3|8|9|10|10U:20(qc=5)
REM Fe 3|2.2|2.0|1.0|8|9|10|40:41:32(qc=5)
REM 
CELL 1.54180    3.58777    7.36830   12.15283   90.00000   90.00000  139.40289
LATT -1
SFAC Li O  S  Fe 
Li     1 -0.1509860000000  0.2458770000000  0.1972270000000 1.0  -0.00
Li     1  0.1509860000000 -0.2458770000000  0.1972270000000 1.0  -0.00
Li     1  0.5571150000000  0.1958640000000  0.4638020000000 1.0  -0.00
Li     1 -0.5571150000000 -0.1958640000000  0.4638020000000 1.0  -0.00
Li     1 -0.5030120000000 -0.3366220000000 -0.1652120000000 1.0   0.00
Li     1  0.5030120000000  0.3366220000000 -0.1652120000000 1.0   0.00
O      2 -0.1057590000000  0.2691670000000 -0.1972620000000 1.0   0.01
O      2  0.1057590000000 -0.2691670000000 -0.1972620000000 1.0   0.01
O      2  0.5000000000000  0.0000000000000 -0.4156610000000 1.0   0.00
S      3  0.2622960000000  0.2783220000000  0.0292140000000 1.0  -0.02
S      3 -0.2622960000000 -0.2783220000000  0.0292140000000 1.0  -0.02
S      3  0.0000000000000  0.0000000000000  0.3042490000000 1.0   0.00
Fe     4  0.0393660000000  0.3484910000000 -0.3459240000000 1.0   0.05
Fe     4 -0.0393660000000 -0.3484910000000 -0.3459240000000 1.0   0.05
Fe     4 -0.5000000000000  0.0000000000000 -0.0853770000000 1.0   0.11
END
