TITL LFSO-Li6FeSO3-200909-214621-7803d0 -0.0161 324.478349 -7.36221194E+003 8.00000 8.29471 22 (Ama2) n - 1
REM
REM Run started: Thu, 10 Sep 2020 03:25:13 +0100 in /lustre/scratch/uccabz1/launch_tmp/launcher_2020-09-09-20-46-20-030912
REM CASTEP 20.1 from code version af48c487+ pr-geom-scf-spinfix Tue Jun 2 15:39:59 2020 +0100
REM Functional Perdew Burke Ernzerhof Relativity Koelling-Harmon Dispersion off
REM Cut-off 340.0000 eV Grid scale 1.7500 Gmax 16.5316 1/A FBSC none
REM MP grid 4 4 2 Offset 0.000 0.000 0.000 No. kpts 6 Spacing 0.07
REM Total runtime: 22710.2 s
REM Overall efficiency: 97.9091 %
REM
REM
REM
REM compiler GCC version 4.9.2
REM options -cpp -iprefix /lustre/shared/ucl/apps/gcc/4.9.2/bin/../lib/gcc/x86_64-unknown-linux-gnu/4.9.2/ -mtune=corei7 -march=x86-64 -g -Og
REM COMMAND_LINE
REM seed 1597964344 974603487 -2063658388 -1881865322 1173435183 -914372581 1074013990 1869263364 2124719001 2009436298 -1224440543 -1104502086
REM
REM S 3|1.8|5|6|7|30:31:32(qc=5)
REM O 2|1.5|12|13|15|20:21(qc=5)
REM Li 1|1.3|8|9|10|10U:20(qc=5)
REM Fe 3|2.2|2.0|1.0|8|9|10|40:41:32(qc=5)
REM 
CELL 1.54180    9.08893    9.08893    9.61771   90.00000   90.00000  155.89549
LATT -1
SFAC Li O  S  Fe 
Li     1 -0.1950060000000 -0.0589610000000  0.5829810000000 1.0  -0.01
Li     1 -0.0589610000000 -0.1950060000000 -0.5829810000000 1.0  -0.01
Li     1 -0.0589610000000 -0.1950060000000  0.0829810000000 1.0  -0.01
Li     1 -0.1950060000000 -0.0589610000000 -0.0829810000000 1.0  -0.01
Li     1 -0.3780860000000 -0.6378220000000 -0.3927490000000 1.0   0.01
Li     1 -0.6378220000000 -0.3780860000000  0.3927490000000 1.0   0.01
Li     1 -0.6378220000000 -0.3780860000000  0.1072510000000 1.0   0.01
Li     1 -0.3780860000000 -0.6378220000000 -0.1072510000000 1.0   0.01
Li     1  0.0742140000000  0.5830190000000 -0.0903700000000 1.0  -0.04
Li     1  0.5830190000000  0.0742140000000  0.0903700000000 1.0  -0.04
Li     1  0.5830190000000  0.0742140000000  0.4096300000000 1.0  -0.04
Li     1  0.0742140000000  0.5830190000000 -0.4096300000000 1.0  -0.04
O      2  0.5780380000000 -0.0634010000000 -0.0630490000000 1.0   0.19
O      2 -0.0634010000000  0.5780380000000  0.0630490000000 1.0   0.19
O      2 -0.0634010000000  0.5780380000000  0.4369510000000 1.0   0.19
O      2  0.5780380000000 -0.0634010000000 -0.4369510000000 1.0   0.19
O      2 -0.2385790000000  0.3588450000000 -0.2500000000000 1.0   0.23
O      2  0.3588450000000 -0.2385790000000  0.2500000000000 1.0   0.23
S      3  0.3728500000000  0.3728500000000 -0.0000000000000 1.0   0.01
S      3  0.3728500000000  0.3728500000000  0.5000000000000 1.0   0.01
Fe     4  0.6229880000000  0.0273160000000 -0.2500000000000 1.0   3.47
Fe     4  0.0273160000000  0.6229880000000  0.2500000000000 1.0   3.47
END
