TITL LFSO-Li6FeSO3-200909-210122-cd577d 0.0330 281.262828 -7.35906567E+003 8.00000 8.17284 22 (R3) n - 1
REM
REM Run started: Thu, 10 Sep 2020 05:17:12 +0100 in /lustre/scratch/uccabz1/launch_tmp/launcher_2020-09-09-20-01-20-769522
REM CASTEP 20.1 from code version af48c487+ pr-geom-scf-spinfix Tue Jun 2 15:39:59 2020 +0100
REM Functional Perdew Burke Ernzerhof Relativity Koelling-Harmon Dispersion off
REM Cut-off 340.0000 eV Grid scale 1.7500 Gmax 16.5316 1/A FBSC none
REM MP grid 3 3 3 Offset 0.000 0.000 0.000 No. kpts 6 Spacing 0.07
REM Total runtime: 25420.6 s
REM Overall efficiency: 98.375 %
REM
REM
REM
REM compiler GCC version 4.9.2
REM options -cpp -iprefix /lustre/shared/ucl/apps/gcc/4.9.2/bin/../lib/gcc/x86_64-unknown-linux-gnu/4.9.2/ -mtune=corei7 -march=x86-64 -g -Og
REM COMMAND_LINE
REM seed -39463400 659419112 -13126908 1184236319 168437298 2034746486 1094571286 -262768856 -184731435 1393860477 -1960264711 288287978
REM
REM S 3|1.8|5|6|7|30:31:32(qc=5)
REM O 2|1.5|12|13|15|20:21(qc=5)
REM Li 1|1.3|8|9|10|10U:20(qc=5)
REM Fe 3|2.2|2.0|1.0|8|9|10|40:41:32(qc=5)
REM 
CELL 1.54180    7.94769    7.94769    6.89141   54.78554   54.78554   60.00000
LATT -1
SFAC Li O  S  Fe 
Li     1  0.2028210000000  0.0504870000000  0.1329750000000 1.0  -0.00
Li     1 -0.3862830000000  0.2028210000000  0.1329750000000 1.0  -0.00
Li     1  0.0504870000000 -0.3862830000000  0.1329750000000 1.0  -0.00
Li     1  0.0216900000000  0.4166480000000 -0.3383820000000 1.0  -0.05
Li     1 -0.0999550000000  0.0216900000000 -0.3383820000000 1.0  -0.05
Li     1  0.4166480000000 -0.0999550000000 -0.3383820000000 1.0  -0.05
Li     1  0.1843430000000  0.5797770000000 -0.2284240000000 1.0   0.00
Li     1 -0.5356960000000  0.1843430000000 -0.2284240000000 1.0   0.00
Li     1  0.5797770000000 -0.5356960000000 -0.2284240000000 1.0   0.00
Li     1 -0.1012270000000  0.3952890000000  0.0834180000000 1.0  -0.02
Li     1 -0.3774800000000 -0.1012270000000  0.0834180000000 1.0  -0.02
Li     1  0.3952890000000 -0.3774800000000  0.0834180000000 1.0  -0.02
O      2  0.1710040000000  0.3110890000000 -0.1492300000000 1.0   0.07
O      2 -0.3328630000000  0.1710040000000 -0.1492300000000 1.0   0.07
O      2  0.3110890000000 -0.3328630000000 -0.1492300000000 1.0   0.07
O      2  0.4543540000000 -0.1165770000000 -0.0416060000000 1.0   0.26
O      2 -0.2961700000000  0.4543540000000 -0.0416060000000 1.0   0.26
O      2 -0.1165770000000 -0.2961700000000 -0.0416060000000 1.0   0.26
S      3 -0.1167820000000 -0.1167820000000  0.3503450000000 1.0   0.15
S      3  0.1870570000000  0.1870570000000 -0.5611720000000 1.0   0.04
Fe     4 -0.2655800000000 -0.2655800000000 -0.2032610000000 1.0   3.64
Fe     4  0.0326360000000  0.0326360000000 -0.0979070000000 1.0   3.41
END
