TITL LFSO-Li4Fe3S2O3-200928-070724-21678a 0.0131 187.342317 -5.30618405E+003 9.98247 10.3309 12 (C2/m) n - 1
REM
REM Run started: Mon, 28 Sep 2020 09:57:52 +0100 in /scratch/scratch/uccabz1/launch_tmp/launcher_2020-09-28-06-07-23-089326
REM CASTEP 19.11| from code version Version unavailable
REM Functional Perdew Burke Ernzerhof Relativity Koelling-Harmon Dispersion off
REM Cut-off 340.0000 eV Grid scale 1.7500 Gmax 16.5316 1/A FBSC none
REM MP grid 4 3 3 Offset 0.000 0.000 0.000 No. kpts 12 Spacing 0.07
REM Total runtime: 13735.7 s
REM Overall efficiency: 97.3333 %
REM
REM
REM
REM compiler GCC version 4.9.2
REM options -cpp -iprefix /scratch/UCL/applications/gcc/4.9.2/bin/../lib/gcc/x86_64-unknown-linux-gnu/4.9.2/ -mtune=corei7 -march=x86-64 -g -O2
REM COMMAND_LINE
REM seed 533010377 2091388860 246231474 -1869383588 -1202831221 -1520921413 -1374213511 363906670 1145883562 -1144312669 -1721758089 1692494341
REM
REM S 3|1.8|5|6|7|30:31:32(qc=5)
REM O 2|1.5|12|13|15|20:21(qc=5)
REM Li 1|1.3|8|9|10|10U:20(qc=5)
REM Fe 3|2.2|2.0|1.0|8|9|10|40:41:32(qc=5)
REM 
CELL 1.54180    5.91649    6.65150    6.65150  114.63499  109.44435  109.44435
LATT -1
SFAC Li O  S  Fe 
Li     1  0.3241390000000 -0.3512520000000 -0.1296460000000 1.0  -0.06
Li     1 -0.3241390000000  0.1296460000000  0.3512520000000 1.0  -0.06
Li     1 -0.3241390000000  0.3512520000000  0.1296460000000 1.0  -0.06
Li     1  0.3241390000000 -0.1296460000000 -0.3512520000000 1.0  -0.06
O      2  0.5000000000000  0.5000000000000  0.0000000000000 1.0   0.26
O      2 -0.5000000000000  0.0000000000000 -0.5000000000000 1.0   0.26
O      2  0.5000000000000  0.0000000000000  0.0000000000000 1.0   0.02
S      3  0.0000000000000  0.0000000000000 -0.5000000000000 1.0   0.16
S      3  0.0000000000000 -0.5000000000000  0.0000000000000 1.0   0.16
Fe     4 -0.5000000000000 -0.2876540000000  0.2876540000000 1.0   2.87
Fe     4  0.5000000000000  0.2876540000000 -0.2876540000000 1.0   2.87
Fe     4  0.0000000000000  0.0000000000000  0.0000000000000 1.0   3.61
END
