TITL LFSO-Li4Fe3S2O3-200928-143722-686fef -0.1912 393.019855 -1.06179567E+004 19.1817 19.8726 24 (C222) n - 1
REM
REM Run started: Wed, 30 Sep 2020 02:38:34 +0100 in /lustre/scratch/uccabz1/launch_tmp/launcher_2020-09-28-13-37-20-429652
REM CASTEP 20.1 from code version af48c487+ pr-geom-scf-spinfix Tue Jun 2 15:39:59 2020 +0100
REM Functional Perdew Burke Ernzerhof Relativity Koelling-Harmon Dispersion off
REM Cut-off 340.0000 eV Grid scale 1.7500 Gmax 16.5316 1/A FBSC none
REM MP grid 5 2 2 Offset 0.000 0.000 0.000 No. kpts 6 Spacing 0.07
REM Total runtime: 141244 s
REM Overall efficiency: 98.5 %
REM
REM
REM
REM compiler GCC version 4.9.2
REM options -cpp -iprefix /lustre/shared/ucl/apps/gcc/4.9.2/bin/../lib/gcc/x86_64-unknown-linux-gnu/4.9.2/ -mtune=corei7 -march=x86-64 -g -Og
REM COMMAND_LINE
REM seed 1542284425 -923364303 -623367901 858291750 -893756062 2141366784 1757159851 -813287516 -1838911762 1831002834 -586882268 -631283597
REM
REM S 3|1.8|5|6|7|30:31:32(qc=5)
REM O 2|1.5|12|13|15|20:21(qc=5)
REM Li 1|1.3|8|9|10|10U:20(qc=5)
REM Fe 3|2.2|2.0|1.0|8|9|10|40:41:32(qc=5)
REM 
CELL 1.54180    2.90939   11.68622   11.68622   98.44494   90.00000   90.00000
LATT -1
SFAC Li O  S  Fe 
Li     1 -0.4484580000000  0.1985690000000  0.0008830000000 1.0   0.02
Li     1 -0.4484580000000 -0.1985690000000 -0.0008830000000 1.0   0.02
Li     1  0.4484580000000  0.0008830000000  0.1985690000000 1.0   0.02
Li     1  0.4484580000000 -0.0008830000000 -0.1985690000000 1.0   0.02
Li     1 -0.0388950000000 -0.4219580000000 -0.0705230000000 1.0   0.00
Li     1 -0.0388950000000  0.4219580000000  0.0705230000000 1.0   0.00
Li     1  0.0388950000000 -0.0705230000000 -0.4219580000000 1.0   0.00
Li     1  0.0388950000000  0.0705230000000  0.4219580000000 1.0   0.00
O      2  0.0498600000000  0.2809970000000 -0.0431210000000 1.0   0.18
O      2  0.0498600000000 -0.2809970000000  0.0431210000000 1.0   0.18
O      2 -0.0498600000000 -0.0431210000000  0.2809970000000 1.0   0.18
O      2 -0.0498600000000  0.0431210000000 -0.2809970000000 1.0   0.18
O      2  0.4556260000000  0.5000000000000  0.0000000000000 1.0   0.10
O      2 -0.4556260000000  0.0000000000000  0.5000000000000 1.0   0.10
S      3 -0.4829450000000 -0.2529170000000 -0.4954240000000 1.0   0.29
S      3 -0.4829450000000  0.2529170000000  0.4954240000000 1.0   0.29
S      3  0.4829450000000 -0.4954240000000 -0.2529170000000 1.0   0.29
S      3  0.4829450000000  0.4954240000000  0.2529170000000 1.0   0.29
Fe     4 -0.4541120000000  0.1349780000000 -0.3803960000000 1.0   2.95
Fe     4 -0.4541120000000 -0.1349780000000  0.3803960000000 1.0   2.95
Fe     4  0.4541120000000 -0.3803960000000  0.1349780000000 1.0   2.95
Fe     4  0.4541120000000  0.3803960000000 -0.1349780000000 1.0   2.95
Fe     4  0.0000000000000 -0.1927060000000  0.1927060000000 1.0   2.62
Fe     4  0.0000000000000  0.1927060000000 -0.1927060000000 1.0   2.62
END
