TITL LFSO-Li3Fe3S4O2-200929-083804-f505ac 0.0985 436.976697 -1.05649013E+004 -5.83754 8.68155 24 (R3) n - 1
REM
REM Run started: Wed, 30 Sep 2020 15:43:39 +0100 in /lustre/scratch/uccabz1/launch_tmp/launcher_2020-09-29-07-38-02-405120
REM CASTEP 20.1 from code version af48c487+ pr-geom-scf-spinfix Tue Jun 2 15:39:59 2020 +0100
REM Functional Perdew Burke Ernzerhof Relativity Koelling-Harmon Dispersion off
REM Cut-off 340.0000 eV Grid scale 1.7500 Gmax 16.5316 1/A FBSC none
REM MP grid 3 3 3 Offset 0.000 0.000 0.000 No. kpts 6 Spacing 0.07
REM Total runtime: 123759 s
REM Overall efficiency: 98.75 %
REM
REM
REM
REM compiler GCC version 4.9.2
REM options -cpp -iprefix /lustre/shared/ucl/apps/gcc/4.9.2/bin/../lib/gcc/x86_64-unknown-linux-gnu/4.9.2/ -mtune=corei7 -march=x86-64 -g -Og
REM COMMAND_LINE
REM seed -1218359796 563491564 220593865 -2099827719 -1553853688 -1183714181 -508244448 795848250 1367252411 329286053 -2003505633 1213915255
REM
REM S 3|1.8|5|6|7|30:31:32(qc=5)
REM O 2|1.5|12|13|15|20:21(qc=5)
REM Li 1|1.3|8|9|10|10U:20(qc=5)
REM Fe 3|2.2|2.0|1.0|8|9|10|40:41:32(qc=5)
REM 
CELL 1.54180    9.50518    9.50518    9.50518   48.16972   48.16972   48.16972
LATT -1
SFAC Li O  S  Fe 
Li     1  0.2193740000000  0.4096680000000  0.0570340000000 1.0   0.00
Li     1  0.4096680000000  0.0570340000000  0.2193740000000 1.0   0.00
Li     1  0.0570340000000  0.2193740000000  0.4096680000000 1.0   0.00
Li     1  0.2536190000000 -0.1234260000000  0.2339190000000 1.0  -0.05
Li     1 -0.1234260000000  0.2339190000000  0.2536190000000 1.0  -0.05
Li     1  0.2339190000000  0.2536190000000 -0.1234260000000 1.0  -0.05
O      2  0.3113240000000  0.0209910000000 -0.5064790000000 1.0  -0.07
O      2  0.0209910000000 -0.5064790000000  0.3113240000000 1.0  -0.07
O      2 -0.5064790000000  0.3113240000000  0.0209910000000 1.0  -0.07
O      2  0.1698740000000  0.1698740000000  0.1698740000000 1.0  -0.01
S      3  0.5432870000000  0.1106130000000 -0.3777270000000 1.0  -0.31
S      3  0.1106130000000 -0.3777270000000  0.5432870000000 1.0  -0.31
S      3 -0.3777270000000  0.5432870000000  0.1106130000000 1.0  -0.31
S      3 -0.2163670000000  0.0114000000000  0.2484850000000 1.0  -0.01
S      3  0.0114000000000  0.2484850000000 -0.2163670000000 1.0  -0.01
S      3  0.2484850000000 -0.2163670000000  0.0114000000000 1.0  -0.01
S      3 -0.1038980000000 -0.1038980000000 -0.1038980000000 1.0  -0.03
S      3 -0.3363270000000 -0.3363270000000 -0.3363270000000 1.0   0.11
Fe     4 -0.0319910000000 -0.2321560000000  0.1458690000000 1.0   0.35
Fe     4 -0.2321560000000  0.1458690000000 -0.0319910000000 1.0   0.35
Fe     4  0.1458690000000 -0.0319910000000 -0.2321560000000 1.0   0.35
Fe     4  0.5382880000000  0.4960890000000 -0.0086820000000 1.0  -1.90
Fe     4  0.4960890000000 -0.0086820000000  0.5382880000000 1.0  -1.90
Fe     4 -0.0086820000000  0.5382880000000  0.4960890000000 1.0  -1.90
END
