TITL LFSO-Li4Fe3S3O2-200927-004321-31e47c 0.4626 549.636539 -1.03536465E+004 -19.3937 19.9903 24 (P2) n - 1
REM
REM Run started: Mon, 28 Sep 2020 15:09:22 +0100 in /lustre/scratch/uccabz1/launch_tmp/launcher_2020-09-28-13-12-10-766669
REM CASTEP 20.1 from code version af48c487+ pr-geom-scf-spinfix Tue Jun 2 15:39:59 2020 +0100
REM Functional Perdew Burke Ernzerhof Relativity Koelling-Harmon Dispersion off
REM Cut-off 340.0000 eV Grid scale 1.7500 Gmax 16.5316 1/A FBSC none
REM MP grid 3 2 2 Offset 0.000 0.000 0.000 No. kpts 3 Spacing 0.07
REM Total runtime: 79798.9 s
REM Overall efficiency: 98.6 %
REM
REM
REM
REM compiler GCC version 4.9.2
REM options -cpp -iprefix /lustre/shared/ucl/apps/gcc/4.9.2/bin/../lib/gcc/x86_64-unknown-linux-gnu/4.9.2/ -mtune=corei7 -march=x86-64 -g -Og
REM COMMAND_LINE
REM seed -534489784 1731615589 -2085625357 -2143947951 1673706837 1255533471 977999039 1128479484 -1664052457 -849721467 -1894852302 -2011860430
REM
REM S 3|1.8|5|6|7|30:31:32(qc=5)
REM O 2|1.5|12|13|15|20:21(qc=5)
REM Li 1|1.3|8|9|10|10U:20(qc=5)
REM Fe 3|2.2|2.0|1.0|8|9|10|40:41:32(qc=5)
REM 
CELL 1.54180    6.22763   10.06606    9.40971   90.00000   90.00000  111.28486
LATT -1
SFAC Li O  S  Fe 
Li     1 -0.2018750000000  0.4109340000000 -0.4372190000000 1.0   0.01
Li     1  0.2018750000000 -0.4109340000000 -0.4372190000000 1.0   0.01
Li     1  0.2439990000000 -0.0332970000000 -0.3612580000000 1.0   0.01
Li     1 -0.2439990000000  0.0332970000000 -0.3612580000000 1.0   0.01
Li     1  0.4556740000000 -0.2097480000000  0.2745470000000 1.0   0.02
Li     1 -0.4556740000000  0.2097480000000  0.2745470000000 1.0   0.02
Li     1  0.1229550000000 -0.2766750000000 -0.0097190000000 1.0  -0.03
Li     1 -0.1229550000000  0.2766750000000 -0.0097190000000 1.0  -0.03
O      2  0.0987410000000  0.3943940000000  0.4900570000000 1.0  -0.26
O      2 -0.0987410000000 -0.3943940000000  0.4900570000000 1.0  -0.26
O      2  0.1903110000000 -0.2696310000000  0.1733080000000 1.0  -0.26
O      2 -0.1903110000000  0.2696310000000  0.1733080000000 1.0  -0.26
S      3  0.4777730000000  0.1756830000000 -0.4842650000000 1.0  -0.18
S      3 -0.4777730000000 -0.1756830000000 -0.4842650000000 1.0  -0.18
S      3 -0.0549300000000 -0.1785810000000 -0.2020660000000 1.0  -0.22
S      3  0.0549300000000  0.1785810000000 -0.2020660000000 1.0  -0.22
S      3 -0.2876010000000  0.4272390000000 -0.1726740000000 1.0  -0.06
S      3  0.2876010000000 -0.4272390000000 -0.1726740000000 1.0  -0.06
Fe     4 -0.2344590000000 -0.2806670000000 -0.4172340000000 1.0  -3.39
Fe     4  0.2344590000000  0.2806670000000 -0.4172340000000 1.0  -3.39
Fe     4 -0.0044890000000  0.3686000000000  0.3091220000000 1.0  -3.29
Fe     4  0.0044890000000 -0.3686000000000  0.3091220000000 1.0  -3.29
Fe     4  0.3498930000000  0.3797430000000 -0.1939810000000 1.0  -2.05
Fe     4 -0.3498930000000 -0.3797430000000 -0.1939810000000 1.0  -2.05
END
