TITL LFSO-Li3Fe3SO5-200926-074655-01850e 0.0053 372.535327 -1.13671393E+004 -20.9212 21.3555 24 (P2/c) n - 1
REM
REM Run started: Sun, 27 Sep 2020 07:18:26 +0100 in /lustre/scratch/uccabz1/launch_tmp/launcher_2020-09-26-06-46-52-762949
REM CASTEP 20.1 from code version af48c487+ pr-geom-scf-spinfix Tue Jun 2 15:39:59 2020 +0100
REM Functional Perdew Burke Ernzerhof Relativity Koelling-Harmon Dispersion off
REM Cut-off 340.0000 eV Grid scale 1.7500 Gmax 16.5316 1/A FBSC none
REM MP grid 3 3 2 Offset 0.000 0.000 0.000 No. kpts 5 Spacing 0.07
REM Total runtime: 85428.4 s
REM Overall efficiency: 81.4444 %
REM
REM
REM
REM compiler GCC version 4.9.2
REM options -cpp -iprefix /lustre/shared/ucl/apps/gcc/4.9.2/bin/../lib/gcc/x86_64-unknown-linux-gnu/4.9.2/ -mtune=corei7 -march=x86-64 -g -Og
REM COMMAND_LINE
REM seed 762619777 -1819721961 -696228578 282409904 -789280603 886918560 1045308187 1539797547 910062827 758754331 1122146502 832479955
REM
REM S 3|1.8|5|6|7|30:31:32(qc=5)
REM O 2|1.5|12|13|15|20:21(qc=5)
REM Li 1|1.3|8|9|10|10U:20(qc=5)
REM Fe 3|2.2|2.0|1.0|8|9|10|40:41:32(qc=5)
REM 
CELL 1.54180    5.62119    5.87850   13.13338   90.00000   90.00000  120.86110
LATT -1
SFAC Li O  S  Fe 
Li     1 -0.1974440000000 -0.5248130000000  0.4502270000000 1.0   0.01
Li     1 -0.3025560000000  0.0248130000000  0.4502270000000 1.0   0.01
Li     1  0.1974440000000  0.5248130000000 -0.4502270000000 1.0   0.01
Li     1  0.3025560000000 -0.0248130000000 -0.4502270000000 1.0   0.01
Li     1  0.2500000000000 -0.2500000000000  0.0496770000000 1.0  -0.01
Li     1 -0.2500000000000  0.2500000000000 -0.0496770000000 1.0  -0.01
O      2  0.5400800000000  0.5375510000000  0.2713700000000 1.0  -0.20
O      2 -0.0400800000000 -0.0375510000000  0.2713700000000 1.0  -0.20
O      2 -0.5400800000000 -0.5375510000000 -0.2713700000000 1.0  -0.20
O      2  0.0400800000000  0.0375510000000 -0.2713700000000 1.0  -0.20
O      2  0.4529640000000  0.1669620000000 -0.5700070000000 1.0  -0.34
O      2  0.0470360000000  0.3330380000000 -0.5700070000000 1.0  -0.34
O      2 -0.4529640000000 -0.1669620000000  0.5700070000000 1.0  -0.34
O      2 -0.0470360000000 -0.3330380000000  0.5700070000000 1.0  -0.34
O      2 -0.2500000000000  0.2500000000000 -0.1895640000000 1.0  -0.33
O      2  0.2500000000000 -0.2500000000000  0.1895640000000 1.0  -0.33
S      3 -0.2500000000000  0.2500000000000  0.1314900000000 1.0  -0.11
S      3  0.2500000000000 -0.2500000000000 -0.1314900000000 1.0  -0.11
Fe     4 -0.1050150000000 -0.3725410000000  0.2261860000000 1.0  -2.68
Fe     4 -0.3949850000000 -0.1274590000000  0.2261860000000 1.0  -2.68
Fe     4  0.1050150000000  0.3725410000000 -0.2261860000000 1.0  -2.68
Fe     4  0.3949850000000  0.1274590000000 -0.2261860000000 1.0  -2.68
Fe     4  0.2500000000000  0.2500000000000  0.3497760000000 1.0  -3.60
Fe     4 -0.2500000000000 -0.2500000000000 -0.3497760000000 1.0  -3.60
END
