TITL LFSO-Li4Fe2SO3-200910-194316-9ff49c 0.0212 420.620468 -8.28255440E+003 0.749946E-13 0.196127E-08 20 (Cmm2) n - 1
REM
REM Run started: Thu, 10 Sep 2020 22:55:57 +0100 in /lustre/scratch/uccabz1/launch_tmp/launcher_2020-09-10-18-43-14-371521
REM CASTEP 20.1 from code version af48c487+ pr-geom-scf-spinfix Tue Jun 2 15:39:59 2020 +0100
REM Functional Perdew Burke Ernzerhof Relativity Koelling-Harmon Dispersion off
REM Cut-off 340.0000 eV Grid scale 1.7500 Gmax 16.5316 1/A FBSC none
REM MP grid 3 2 2 Offset 0.000 0.000 0.000 No. kpts 3 Spacing 0.07
REM Total runtime: 13024.4 s
REM Overall efficiency: 97.75 %
REM
REM
REM
REM compiler GCC version 4.9.2
REM options -cpp -iprefix /lustre/shared/ucl/apps/gcc/4.9.2/bin/../lib/gcc/x86_64-unknown-linux-gnu/4.9.2/ -mtune=corei7 -march=x86-64 -g -Og
REM COMMAND_LINE
REM seed -64271773 -476191016 -832445298 6282359 637518789 2082830071 -1005929123 1111947659 1762308691 -1591917032 212890039 -2007788939
REM
REM S 3|1.8|5|6|7|30:31:32(qc=5)
REM O 2|1.5|12|13|15|20:21(qc=5)
REM Li 1|1.3|8|9|10|10U:20(qc=5)
REM Fe 3|2.2|2.0|1.0|8|9|10|40:41:32(qc=5)
REM 
CELL 1.54180    6.67010    8.20802    8.40814   90.00000   90.00000  113.97356
LATT -1
SFAC Li O  S  Fe 
Li     1 -0.1118730000000  0.3324300000000 -0.1402990000000 1.0
Li     1  0.1118730000000 -0.3324290000000 -0.1402990000000 1.0
Li     1  0.4443020000000  0.3324300000000 -0.1402990000000 1.0
Li     1 -0.4443020000000 -0.3324290000000 -0.1402990000000 1.0
Li     1  0.3716260000000  0.3040290000000  0.2323820000000 1.0
Li     1 -0.3716260000000 -0.3040290000000  0.2323820000000 1.0
Li     1 -0.0675970000000  0.3040290000000  0.2323820000000 1.0
Li     1  0.0675970000000 -0.3040290000000  0.2323820000000 1.0
O      2 -0.1153510000000  0.2369570000000  0.4356390000000 1.0
O      2  0.1153510000000 -0.2369570000000  0.4356390000000 1.0
O      2  0.3523080000000  0.2369570000000  0.4356390000000 1.0
O      2 -0.3523080000000 -0.2369570000000  0.4356390000000 1.0
O      2  0.3331300000000 -0.3337400000000 -0.2829820000000 1.0
O      2 -0.3331300000000  0.3337400000000 -0.2829820000000 1.0
S      3  0.1950140000000  0.3900280000000  0.0300090000000 1.0
S      3 -0.1950140000000 -0.3900280000000  0.0300090000000 1.0
Fe     4 -0.5118170000000 -0.3832020000000 -0.4386310000000 1.0
Fe     4  0.5118180000000  0.3832020000000 -0.4386310000000 1.0
Fe     4  0.1286160000000 -0.3832020000000 -0.4386310000000 1.0
Fe     4 -0.1286150000000  0.3832020000000 -0.4386310000000 1.0
END
