TITL LFSO-Li2Fe4S2O3-200912-073713-b08b95 -0.0546 201.565147 -5.77282717E+003 13.3368 13.7038 11 (P2/m) n - 1
REM
REM Run started: Sat, 12 Sep 2020 10:40:38 +0100 in /lustre/scratch/uccabz1/launch_tmp/launcher_2020-09-12-06-37-12-027020
REM CASTEP 20.1 from code version af48c487+ pr-geom-scf-spinfix Tue Jun 2 15:39:59 2020 +0100
REM Functional Perdew Burke Ernzerhof Relativity Koelling-Harmon Dispersion off
REM Cut-off 340.0000 eV Grid scale 1.7500 Gmax 16.5316 1/A FBSC none
REM MP grid 3 3 4 Offset 0.000 0.000 0.000 No. kpts 12 Spacing 0.07
REM Total runtime: 11297.6 s
REM Overall efficiency: 94 %
REM
REM
REM
REM compiler GCC version 4.9.2
REM options -cpp -iprefix /lustre/shared/ucl/apps/gcc/4.9.2/bin/../lib/gcc/x86_64-unknown-linux-gnu/4.9.2/ -mtune=corei7 -march=x86-64 -g -Og
REM COMMAND_LINE
REM seed 638423198 -1865614808 -625042930 -1391491810 -1932144907 776239696 411231466 374631091 1987231353 -361354863 -106572990 -1563628896
REM
REM S 3|1.8|5|6|7|30:31:32(qc=5)
REM O 2|1.5|12|13|15|20:21(qc=5)
REM Li 1|1.3|8|9|10|10U:20(qc=5)
REM Fe 3|2.2|2.0|1.0|8|9|10|40:41:32(qc=5)
REM 
CELL 1.54180    7.75925    6.84288    4.49911   90.00000  122.45842   90.00000
LATT -1
SFAC Li O  S  Fe 
Li     1 -0.3347090000000  0.5000000000000 -0.0862990000000 1.0  -0.10
Li     1  0.3347090000000 -0.5000000000000  0.0862990000000 1.0  -0.10
O      2 -0.2318470000000  0.0000000000000 -0.3063200000000 1.0   0.44
O      2  0.2318470000000  0.0000000000000  0.3063200000000 1.0   0.44
O      2 -0.5000000000000  0.0000000000000  0.0000000000000 1.0   0.28
S      3 -0.2624020000000  0.5000000000000  0.4835570000000 1.0   0.19
S      3  0.2624020000000 -0.5000000000000 -0.4835570000000 1.0   0.19
Fe     4 -0.6231940000000  0.1913710000000 -0.3791940000000 1.0   3.00
Fe     4  0.6231940000000  0.1913710000000  0.3791940000000 1.0   3.00
Fe     4  0.6231940000000 -0.1913710000000  0.3791940000000 1.0   3.00
Fe     4 -0.6231940000000 -0.1913710000000 -0.3791940000000 1.0   3.00
END
