TITL LFSO-Li4Fe2S3O2-200911-064848-c510a0 -0.0635 343.605410 -8.62979999E+003 -14.9973 15.1775 22 (P21) n - 1
REM
REM Run started: Sat, 12 Sep 2020 02:19:44 +0100 in /lustre/scratch/uccabz1/launch_tmp/launcher_2020-09-11-05-48-47-037893
REM CASTEP 20.1 from code version af48c487+ pr-geom-scf-spinfix Tue Jun 2 15:39:59 2020 +0100
REM Functional Perdew Burke Ernzerhof Relativity Koelling-Harmon Dispersion off
REM Cut-off 340.0000 eV Grid scale 1.7500 Gmax 16.5316 1/A FBSC none
REM MP grid 3 3 2 Offset 0.000 0.000 0.000 No. kpts 6 Spacing 0.07
REM Total runtime: 84106.5 s
REM Overall efficiency: 94.5385 %
REM
REM
REM
REM compiler GCC version 4.9.2
REM options -cpp -iprefix /lustre/shared/ucl/apps/gcc/4.9.2/bin/../lib/gcc/x86_64-unknown-linux-gnu/4.9.2/ -mtune=corei7 -march=x86-64 -g -Og
REM COMMAND_LINE
REM seed -1547711951 1539973024 1203171765 139693584 1201509052 773646620 -1472936288 1150898481 -1446667581 -1028274893 -1250797556 1078521298
REM
REM S 3|1.8|5|6|7|30:31:32(qc=5)
REM O 2|1.5|12|13|15|20:21(qc=5)
REM Li 1|1.3|8|9|10|10U:20(qc=5)
REM Fe 3|2.2|2.0|1.0|8|9|10|40:41:32(qc=5)
REM 
CELL 1.54180    6.91699    5.98863    9.21484   90.00000  115.81863   90.00000
LATT -1
SFAC Li O  S  Fe 
Li     1  0.1093130000000 -0.1734980000000  0.2519190000000 1.0   0.02
Li     1 -0.1093130000000  0.3265020000000 -0.2519190000000 1.0   0.02
Li     1 -0.3950370000000 -0.3716660000000 -0.1094460000000 1.0  -0.02
Li     1  0.3950370000000  0.1283340000000  0.1094460000000 1.0  -0.02
Li     1 -0.0781200000000 -0.0068230000000 -0.0375970000000 1.0   0.01
Li     1  0.0781200000000  0.4931770000000  0.0375970000000 1.0   0.01
Li     1 -0.4529260000000  0.2022570000000 -0.1880660000000 1.0  -0.00
Li     1  0.4529260000000 -0.2977430000000  0.1880660000000 1.0  -0.00
O      2 -0.1679980000000  0.3165390000000 -0.0342050000000 1.0  -0.23
O      2  0.1679980000000 -0.1834610000000  0.0342050000000 1.0  -0.23
O      2  0.3902460000000 -0.2702970000000  0.3781910000000 1.0  -0.19
O      2 -0.3902460000000  0.2297030000000 -0.3781910000000 1.0  -0.19
S      3 -0.2622590000000 -0.5833400000000  0.3282580000000 1.0  -0.44
S      3  0.2622590000000 -0.0833400000000 -0.3282580000000 1.0  -0.44
S      3  0.2365850000000  0.2318540000000  0.3036100000000 1.0  -0.09
S      3 -0.2365850000000 -0.2681460000000 -0.3036100000000 1.0  -0.09
S      3 -0.2786220000000 -0.1053050000000  0.1219020000000 1.0  -0.25
S      3  0.2786220000000  0.3946950000000 -0.1219020000000 1.0  -0.25
Fe     4  0.1461190000000 -0.2532710000000 -0.1729870000000 1.0  -3.44
Fe     4 -0.1461190000000  0.2467290000000  0.1729870000000 1.0  -3.44
Fe     4  0.4772860000000 -0.0300980000000 -0.4829930000000 1.0  -2.86
Fe     4 -0.4772860000000  0.4699020000000  0.4829930000000 1.0  -2.86
END
