TITL LFSO-Li2Fe4S2O3-200912-140119-c601fd 1.4523 384.340654 -1.15468598E+004 11.2620 12.2909 22 (P2/m) n - 1
REM
REM Run started: Sun, 13 Sep 2020 16:14:28 +0100 in /lustre/scratch/uccabz1/launch_tmp/launcher_2020-09-12-13-01-17-600666
REM CASTEP 20.1 from code version af48c487+ pr-geom-scf-spinfix Tue Jun 2 15:39:59 2020 +0100
REM Functional Perdew Burke Ernzerhof Relativity Koelling-Harmon Dispersion off
REM Cut-off 340.0000 eV Grid scale 1.7500 Gmax 16.5316 1/A FBSC none
REM MP grid 2 3 2 Offset 0.000 0.000 0.000 No. kpts 3 Spacing 0.07
REM Total runtime: 101049 s
REM Overall efficiency: 96.5 %
REM
REM
REM
REM compiler GCC version 4.9.2
REM options -cpp -iprefix /lustre/shared/ucl/apps/gcc/4.9.2/bin/../lib/gcc/x86_64-unknown-linux-gnu/4.9.2/ -mtune=corei7 -march=x86-64 -g -Og
REM COMMAND_LINE
REM seed 1744048364 1921480081 89933382 1367458193 1588782058 550996650 1924528267 641897248 186424693 144062846 -240873986 -1173541757
REM
REM S 3|1.8|5|6|7|30:31:32(qc=5)
REM O 2|1.5|12|13|15|20:21(qc=5)
REM Li 1|1.3|8|9|10|10U:20(qc=5)
REM Fe 3|2.2|2.0|1.0|8|9|10|40:41:32(qc=5)
REM 
CELL 1.54180    7.60570    7.13779    7.99932  117.74430   90.00000   90.00000
LATT -1
SFAC Li O  S  Fe 
Li     1 -0.2741690000000  0.0255630000000 -0.1506420000000 1.0   0.01
Li     1 -0.2741690000000 -0.0255630000000  0.1506420000000 1.0   0.01
Li     1  0.2741690000000 -0.0255630000000  0.1506420000000 1.0   0.01
Li     1  0.2741690000000  0.0255630000000 -0.1506420000000 1.0   0.01
O      2  0.2055540000000  0.2103370000000  0.0979740000000 1.0   0.11
O      2  0.2055540000000 -0.2103370000000 -0.0979740000000 1.0   0.11
O      2 -0.2055540000000 -0.2103370000000 -0.0979740000000 1.0   0.11
O      2 -0.2055540000000  0.2103370000000  0.0979740000000 1.0   0.11
O      2 -0.5000000000000  0.1362770000000  0.3147950000000 1.0   0.13
O      2  0.5000000000000 -0.1362770000000 -0.3147950000000 1.0   0.13
S      3 -0.2009910000000 -0.2691540000000  0.3378550000000 1.0  -0.05
S      3 -0.2009910000000  0.2691540000000 -0.3378550000000 1.0  -0.05
S      3  0.2009910000000  0.2691540000000 -0.3378550000000 1.0  -0.05
S      3  0.2009910000000 -0.2691540000000  0.3378550000000 1.0  -0.05
Fe     4  0.1469090000000 -0.4211800000000 -0.2958210000000 1.0   0.92
Fe     4  0.1469090000000  0.4211800000000  0.2958210000000 1.0   0.92
Fe     4 -0.1469090000000  0.4211800000000  0.2958210000000 1.0   0.92
Fe     4 -0.1469090000000 -0.4211800000000 -0.2958210000000 1.0   0.92
Fe     4  0.3502780000000  0.3308070000000  0.4778830000000 1.0   1.76
Fe     4  0.3502780000000 -0.3308070000000 -0.4778830000000 1.0   1.76
Fe     4 -0.3502780000000 -0.3308070000000 -0.4778830000000 1.0   1.76
Fe     4 -0.3502780000000  0.3308070000000  0.4778830000000 1.0   1.76
END
