TITL LFSO-Li4Fe2SO3-200910-222259-368428 -0.0063 287.318863 -8.28910898E+003 15.9877 16.2532 20 (P21212) n - 1
REM
REM Run started: Fri, 11 Sep 2020 00:30:21 +0100 in /lustre/scratch/uccabz1/launch_tmp/launcher_2020-09-10-21-22-57-728299
REM CASTEP 20.1 from code version af48c487+ pr-geom-scf-spinfix Tue Jun 2 15:39:59 2020 +0100
REM Functional Perdew Burke Ernzerhof Relativity Koelling-Harmon Dispersion off
REM Cut-off 340.0000 eV Grid scale 1.7500 Gmax 16.5316 1/A FBSC none
REM MP grid 3 3 2 Offset 0.000 0.000 0.000 No. kpts 4 Spacing 0.07
REM Total runtime: 7729.44 s
REM Overall efficiency: 95.5556 %
REM
REM
REM
REM compiler GCC version 4.9.2
REM options -cpp -iprefix /lustre/shared/ucl/apps/gcc/4.9.2/bin/../lib/gcc/x86_64-unknown-linux-gnu/4.9.2/ -mtune=corei7 -march=x86-64 -g -Og
REM COMMAND_LINE
REM seed -420897075 -1937044564 1522735206 -46014521 -1558706319 -122450272 -909134970 -1947588075 -136570613 1146255812 1115904784 1873215612
REM
REM S 3|1.8|5|6|7|30:31:32(qc=5)
REM O 2|1.5|12|13|15|20:21(qc=5)
REM Li 1|1.3|8|9|10|10U:20(qc=5)
REM Fe 3|2.2|2.0|1.0|8|9|10|40:41:32(qc=5)
REM 
CELL 1.54180    4.90641    5.62168   10.41681   90.00000   90.00000   90.00000
LATT -1
SFAC Li O  S  Fe 
Li     1 -0.2351880000000 -0.0844740000000 -0.1239150000000 1.0  -0.01
Li     1  0.2351880000000 -0.0844740000000  0.1239150000000 1.0  -0.01
Li     1 -0.2648120000000  0.0844740000000  0.3760850000000 1.0  -0.01
Li     1  0.2648120000000  0.0844740000000 -0.3760850000000 1.0  -0.01
Li     1  0.3220360000000  0.5490410000000 -0.3413690000000 1.0  -0.06
Li     1 -0.3220360000000  0.5490410000000  0.3413690000000 1.0  -0.06
Li     1  0.1779640000000 -0.5490410000000  0.1586310000000 1.0  -0.06
Li     1 -0.1779640000000 -0.5490410000000 -0.1586310000000 1.0  -0.06
O      2  0.0497930000000  0.3127310000000 -0.2831720000000 1.0   0.29
O      2 -0.0497930000000  0.3127310000000  0.2831720000000 1.0   0.29
O      2  0.4502070000000 -0.3127310000000  0.2168280000000 1.0   0.29
O      2 -0.4502070000000 -0.3127310000000 -0.2168280000000 1.0   0.29
O      2 -0.0000000000000 -0.3099790000000 -0.0000000000000 1.0   0.25
O      2  0.5000000000000  0.3099790000000  0.5000000000000 1.0   0.25
S      3 -0.0000000000000 -0.2343310000000  0.5000000000000 1.0   0.31
S      3  0.5000000000000  0.2343310000000 -0.0000000000000 1.0   0.31
Fe     4  0.1696270000000 -0.5987880000000  0.4156770000000 1.0   3.50
Fe     4 -0.1696270000000 -0.5987880000000 -0.4156770000000 1.0   3.50
Fe     4  0.3303730000000  0.5987880000000 -0.0843230000000 1.0   3.50
Fe     4 -0.3303730000000  0.5987880000000  0.0843230000000 1.0   3.50
END
