TITL LFSO-Li4Fe3S2O3-200928-051510-d1677b -0.2811 670.836196 -1.06198897E+004 16.5518 17.6153 24 (Cm) n - 1
REM
REM Run started: Wed, 30 Sep 2020 00:54:20 +0100 in /scratch/scratch/uccabz1/launch_tmp/launcher_2020-09-29-22-17-14-126636
REM CASTEP 19.11| from code version Version unavailable
REM Functional Perdew Burke Ernzerhof Relativity Koelling-Harmon Dispersion off
REM Cut-off 340.0000 eV Grid scale 1.7500 Gmax 16.5316 1/A FBSC none
REM MP grid 2 2 3 Offset 0.000 0.000 0.000 No. kpts 5 Spacing 0.07
REM Total runtime: 115979 s
REM Overall efficiency: 75.3571 %
REM
REM
REM
REM compiler GCC version 4.9.2
REM options -cpp -iprefix /scratch/UCL/applications/gcc/4.9.2/bin/../lib/gcc/x86_64-unknown-linux-gnu/4.9.2/ -mtune=corei7 -march=x86-64 -g -O2
REM COMMAND_LINE
REM seed 554687306 1512218501 1586089257 -69704050 -1017239980 1794305424 -333867036 -912026650 2034650204 1724237826 -733808859 1092940380
REM
REM S 3|1.8|5|6|7|30:31:32(qc=5)
REM O 2|1.5|12|13|15|20:21(qc=5)
REM Li 1|1.3|8|9|10|10U:20(qc=5)
REM Fe 3|2.2|2.0|1.0|8|9|10|40:41:32(qc=5)
REM 
CELL 1.54180   11.44960   11.44960    6.07492   79.78825   79.78825  116.52928
LATT -1
SFAC Li O  S  Fe 
Li     1  0.1927910000000 -0.3995550000000 -0.5853210000000 1.0  -0.03
Li     1 -0.3995550000000  0.1927910000000 -0.5853210000000 1.0  -0.03
Li     1 -0.4198320000000 -0.0486340000000 -0.3922930000000 1.0   0.03
Li     1 -0.0486340000000 -0.4198320000000 -0.3922930000000 1.0   0.03
Li     1 -0.0343610000000  0.5082610000000  0.1804250000000 1.0  -0.04
Li     1  0.5082610000000 -0.0343610000000  0.1804250000000 1.0  -0.04
Li     1  0.3793660000000  0.0313070000000 -0.2425450000000 1.0  -0.09
Li     1  0.0313070000000  0.3793660000000 -0.2425450000000 1.0  -0.09
O      2  0.4556450000000  0.0140280000000  0.4640080000000 1.0   0.13
O      2  0.0140280000000  0.4556450000000  0.4640080000000 1.0   0.13
O      2  0.4166290000000 -0.1904070000000 -0.1853820000000 1.0   0.12
O      2 -0.1904070000000  0.4166290000000 -0.1853820000000 1.0   0.12
O      2 -0.2089740000000  0.3374450000000  0.2919220000000 1.0   0.10
O      2  0.3374450000000 -0.2089740000000  0.2919220000000 1.0   0.10
S      3 -0.3802620000000  0.1366050000000 -0.1946890000000 1.0   0.10
S      3  0.1366050000000 -0.3802620000000 -0.1946890000000 1.0   0.10
S      3 -0.2097230000000  0.0760050000000  0.2199340000000 1.0   0.09
S      3  0.0760050000000 -0.2097230000000  0.2199340000000 1.0   0.09
Fe     4  0.2654270000000 -0.2219290000000  0.0364520000000 1.0   2.39
Fe     4 -0.2219290000000  0.2654270000000  0.0364520000000 1.0   2.39
Fe     4 -0.1702110000000  0.3288810000000 -0.4136340000000 1.0   2.31
Fe     4  0.3288810000000 -0.1702110000000 -0.4136340000000 1.0   2.31
Fe     4 -0.1959930000000  0.1150800000000 -0.1565530000000 1.0   3.16
Fe     4  0.1150800000000 -0.1959930000000 -0.1565530000000 1.0   3.16
END
