TITL LFSO-Li2FeSO-200912-034854-aa0c60 -0.0350 316.601087 -8.01976564E+003 8.00016 14.8586 20 (R3) n - 1
REM
REM Run started: Sat, 12 Sep 2020 23:47:57 +0100 in /lustre/scratch/uccabz1/launch_tmp/launcher_2020-09-12-02-48-52-823023
REM CASTEP 20.1 from code version af48c487+ pr-geom-scf-spinfix Tue Jun 2 15:39:59 2020 +0100
REM Functional Perdew Burke Ernzerhof Relativity Koelling-Harmon Dispersion off
REM Cut-off 340.0000 eV Grid scale 1.7500 Gmax 16.5316 1/A FBSC none
REM MP grid 3 3 2 Offset 0.000 0.000 0.000 No. kpts 7 Spacing 0.07
REM Total runtime: 66789.8 s
REM Overall efficiency: 74 %
REM
REM
REM
REM compiler GCC version 4.9.2
REM options -cpp -iprefix /lustre/shared/ucl/apps/gcc/4.9.2/bin/../lib/gcc/x86_64-unknown-linux-gnu/4.9.2/ -mtune=corei7 -march=x86-64 -g -Og
REM COMMAND_LINE
REM seed -1365540198 -716522866 649088624 1353978856 -2043261436 1212926378 51078717 62598359 1491634893 -147747382 -349833165 343677320
REM
REM S 3|1.8|5|6|7|30:31:32(qc=5)
REM O 2|1.5|12|13|15|20:21(qc=5)
REM Li 1|1.3|8|9|10|10U:20(qc=5)
REM Fe 3|2.2|2.0|1.0|8|9|10|40:41:32(qc=5)
REM 
CELL 1.54180    6.45342    6.45342    9.53612   70.22259   70.22259   60.00000
LATT -1
SFAC Li O  S  Fe 
Li     1  0.2213650000000 -0.0156260000000  0.1643240000000 1.0   0.00
Li     1 -0.0156260000000 -0.3700630000000  0.1643240000000 1.0   0.00
Li     1 -0.3700630000000  0.2213650000000  0.1643240000000 1.0   0.00
Li     1 -0.1714680000000 -0.4192140000000 -0.5215060000000 1.0   0.01
Li     1 -0.4192140000000  0.1121880000000 -0.5215060000000 1.0   0.01
Li     1  0.1121880000000 -0.1714680000000 -0.5215060000000 1.0   0.01
Li     1  0.2116370000000  0.2116370000000  0.3650900000000 1.0  -0.01
Li     1 -0.4141890000000 -0.4141890000000  0.2425680000000 1.0   0.00
O      2  0.1639120000000 -0.3079200000000 -0.0633540000000 1.0   0.03
O      2 -0.3079200000000  0.2073620000000 -0.0633540000000 1.0   0.03
O      2  0.2073620000000  0.1639120000000 -0.0633540000000 1.0   0.03
O      2 -0.3428120000000 -0.3428120000000  0.0284360000000 1.0   0.38
S      3 -0.1124670000000  0.2265900000000  0.3317170000000 1.0   0.01
S      3  0.2265900000000 -0.4458400000000  0.3317170000000 1.0   0.01
S      3 -0.4458400000000 -0.1124670000000  0.3317170000000 1.0   0.01
S      3 -0.2318780000000 -0.2318780000000 -0.3043670000000 1.0   0.24
Fe     4 -0.1791140000000 -0.1202590000000 -0.1086130000000 1.0   3.52
Fe     4 -0.1202590000000  0.4079860000000 -0.1086130000000 1.0   3.52
Fe     4  0.4079860000000 -0.1791140000000 -0.1086130000000 1.0   3.52
Fe     4  0.3602780000000  0.3602780000000 -0.0808330000000 1.0  -3.35
END
