TITL LFSO-Li2Fe4S4O-200911-225245-8b750d 0.2630 397.871691 -1.10155347E+004 -8.49079 21.2971 22 (P-1) n - 1
REM
REM Run started: Mon, 14 Sep 2020 08:06:22 +0100 in /lustre/scratch/uccabz1/launch_tmp/launcher_2020-09-14-05-25-47-138693
REM CASTEP 20.1 from code version af48c487+ pr-geom-scf-spinfix Tue Jun 2 15:39:59 2020 +0100
REM Functional Perdew Burke Ernzerhof Relativity Koelling-Harmon Dispersion off
REM Cut-off 340.0000 eV Grid scale 1.7500 Gmax 16.5316 1/A FBSC none
REM MP grid 3 3 2 Offset 0.000 0.000 0.000 No. kpts 9 Spacing 0.07
REM Total runtime: 162523 s
REM Overall efficiency: 98.8889 %
REM
REM
REM
REM compiler GCC version 4.9.2
REM options -cpp -iprefix /lustre/shared/ucl/apps/gcc/4.9.2/bin/../lib/gcc/x86_64-unknown-linux-gnu/4.9.2/ -mtune=corei7 -march=x86-64 -g -Og
REM COMMAND_LINE
REM seed -1468309212 -1449020140 -2085647249 -1364021344 654732713 1118630267 629093061 -1316544195 -1721619618 1596944380 -2067060670 53220750
REM
REM S 3|1.8|5|6|7|30:31:32(qc=5)
REM O 2|1.5|12|13|15|20:21(qc=5)
REM Li 1|1.3|8|9|10|10U:20(qc=5)
REM Fe 3|2.2|2.0|1.0|8|9|10|40:41:32(qc=5)
REM 
CELL 1.54180    6.55677    7.65422   11.49828   51.23228   62.39214   70.44219
LATT -1
SFAC Li O  S  Fe 
Li     1 -0.0790820000000 -0.4602990000000  0.2574030000000 1.0   0.02
Li     1  0.0790820000000  0.4602990000000 -0.2574030000000 1.0   0.02
Li     1 -0.2797980000000 -0.4473650000000 -0.3989980000000 1.0  -0.05
Li     1  0.2797980000000  0.4473650000000  0.3989980000000 1.0  -0.05
O      2  0.1971330000000 -0.2488390000000 -0.3951520000000 1.0   0.02
O      2 -0.1971330000000  0.2488390000000  0.3951520000000 1.0   0.02
S      3 -0.3855520000000 -0.4816450000000 -0.1579490000000 1.0  -0.08
S      3  0.3855520000000  0.4816450000000  0.1579490000000 1.0  -0.08
S      3 -0.4284130000000 -0.0190550000000  0.2034630000000 1.0   0.00
S      3  0.4284130000000  0.0190550000000 -0.2034630000000 1.0   0.00
S      3  0.0090460000000 -0.2304570000000  0.3641230000000 1.0   0.05
S      3 -0.0090460000000  0.2304570000000 -0.3641230000000 1.0   0.05
S      3 -0.0917290000000 -0.2551560000000 -0.0133840000000 1.0  -0.20
S      3  0.0917290000000  0.2551560000000  0.0133840000000 1.0  -0.20
Fe     4  0.2807220000000 -0.3112150000000 -0.0676650000000 1.0  -2.08
Fe     4 -0.2807220000000  0.3112150000000  0.0676650000000 1.0  -2.08
Fe     4  0.3365630000000  0.2706510000000  0.0926870000000 1.0  -1.99
Fe     4 -0.3365630000000 -0.2706510000000 -0.0926870000000 1.0  -1.99
Fe     4  0.2415680000000 -0.1208100000000  0.3982840000000 1.0   3.04
Fe     4 -0.2415680000000  0.1208100000000 -0.3982840000000 1.0   3.04
Fe     4 -0.0695960000000  0.1383720000000  0.2732800000000 1.0  -2.97
Fe     4  0.0695960000000 -0.1383720000000 -0.2732800000000 1.0  -2.97
END
