TITL LFSO-Li4Fe3SO4-200927-190705-72e2f4 0.1271 315.092951 -1.08872725E+004 17.3356 18.6111 24 (R3) n - 1
REM
REM Run started: Tue, 29 Sep 2020 02:43:01 +0100 in /lustre/scratch/uccabz1/launch_tmp/launcher_2020-09-27-18-07-02-963921
REM CASTEP 20.1 from code version af48c487+ pr-geom-scf-spinfix Tue Jun 2 15:39:59 2020 +0100
REM Functional Perdew Burke Ernzerhof Relativity Koelling-Harmon Dispersion off
REM Cut-off 340.0000 eV Grid scale 1.7500 Gmax 16.5316 1/A FBSC none
REM MP grid 3 3 3 Offset 0.000 0.000 0.000 No. kpts 6 Spacing 0.07
REM Total runtime: 73577.3 s
REM Overall efficiency: 98.6667 %
REM
REM
REM
REM compiler GCC version 4.9.2
REM options -cpp -iprefix /lustre/shared/ucl/apps/gcc/4.9.2/bin/../lib/gcc/x86_64-unknown-linux-gnu/4.9.2/ -mtune=corei7 -march=x86-64 -g -Og
REM COMMAND_LINE
REM seed -210189577 -1434821000 -1822820713 -404681212 -216352972 2123389181 1233532823 1657797771 -873631593 -421942027 -2048156240 1189657709
REM
REM S 3|1.8|5|6|7|30:31:32(qc=5)
REM O 2|1.5|12|13|15|20:21(qc=5)
REM Li 1|1.3|8|9|10|10U:20(qc=5)
REM Fe 3|2.2|2.0|1.0|8|9|10|40:41:32(qc=5)
REM 
CELL 1.54180    7.93214    7.93214    7.93214   55.38761   55.38761   55.38761
LATT -1
SFAC Li O  S  Fe 
Li     1  0.0579040000000  0.3243070000000 -0.5436920000000 1.0  -0.10
Li     1 -0.5436920000000  0.0579040000000  0.3243070000000 1.0  -0.10
Li     1  0.3243070000000 -0.5436920000000  0.0579040000000 1.0  -0.10
Li     1  0.0622550000000 -0.4588310000000 -0.3636430000000 1.0  -0.11
Li     1 -0.3636430000000  0.0622550000000 -0.4588310000000 1.0  -0.11
Li     1 -0.4588310000000 -0.3636430000000  0.0622550000000 1.0  -0.11
Li     1 -0.3042490000000 -0.3042490000000 -0.3042490000000 1.0  -0.01
Li     1  0.5036960000000  0.5036960000000  0.5036960000000 1.0  -0.18
O      2 -0.1001280000000 -0.1706030000000  0.4758090000000 1.0   0.16
O      2  0.4758090000000 -0.1001280000000 -0.1706030000000 1.0   0.16
O      2 -0.1706030000000  0.4758090000000 -0.1001280000000 1.0   0.16
O      2 -0.4447500000000  0.1957010000000  0.0115750000000 1.0   0.12
O      2  0.0115750000000 -0.4447500000000  0.1957010000000 1.0   0.12
O      2  0.1957010000000  0.0115750000000 -0.4447500000000 1.0   0.12
O      2  0.0612660000000  0.0612660000000  0.0612660000000 1.0   0.09
O      2 -0.1573180000000 -0.1573180000000 -0.1573180000000 1.0   0.17
S      3  0.3861840000000  0.3861840000000  0.3861840000000 1.0   0.04
S      3  0.1459140000000  0.1459140000000  0.1459140000000 1.0  -0.10
Fe     4 -0.0225830000000 -0.1948460000000  0.2042280000000 1.0   3.14
Fe     4  0.2042280000000 -0.0225830000000 -0.1948460000000 1.0   3.14
Fe     4 -0.1948460000000  0.2042280000000 -0.0225830000000 1.0   3.14
Fe     4  0.0176870000000 -0.0659800000000 -0.4614600000000 1.0   2.58
Fe     4 -0.4614600000000  0.0176870000000 -0.0659800000000 1.0   2.58
Fe     4 -0.0659800000000 -0.4614600000000  0.0176870000000 1.0   2.58
END
