TITL LFSO-Li4Fe2SO4-200910-130645-548101 0.0602 139.469211 -4.58224790E+003 5.88486 5.99593 11 (C2/m) n - 1
REM
REM Run started: Thu, 10 Sep 2020 15:21:28 +0100 in /lustre/scratch/uccabz1/launch_tmp/launcher_2020-09-10-12-06-43-002362
REM CASTEP 20.1 from code version af48c487+ pr-geom-scf-spinfix Tue Jun 2 15:39:59 2020 +0100
REM Functional Perdew Burke Ernzerhof Relativity Koelling-Harmon Dispersion off
REM Cut-off 340.0000 eV Grid scale 1.7500 Gmax 16.5316 1/A FBSC none
REM MP grid 4 4 3 Offset 0.000 0.000 0.000 No. kpts 22 Spacing 0.07
REM Total runtime: 8327.14 s
REM Overall efficiency: 96.125 %
REM
REM
REM
REM compiler GCC version 4.9.2
REM options -cpp -iprefix /lustre/shared/ucl/apps/gcc/4.9.2/bin/../lib/gcc/x86_64-unknown-linux-gnu/4.9.2/ -mtune=corei7 -march=x86-64 -g -Og
REM COMMAND_LINE
REM seed -2000376498 -1094926113 1647141670 -1848696225 -1396054371 2023163015 560388048 259642395 -374133829 753659935 243246711 84720581
REM
REM S 3|1.8|5|6|7|30:31:32(qc=5)
REM O 2|1.5|12|13|15|20:21(qc=5)
REM Li 1|1.3|8|9|10|10U:20(qc=5)
REM Fe 3|2.2|2.0|1.0|8|9|10|40:41:32(qc=5)
REM 
CELL 1.54180    6.32393    5.27285    5.87872   96.98076  105.38304  127.43309
LATT -1
SFAC Li O  S  Fe 
Li     1  0.6057550000000  0.1967790000000  0.7166660000000 1.0  -0.02
Li     1  0.1109110000000  0.5198870000000  0.7166660000000 1.0  -0.02
Li     1 -0.6057550000000 -0.1967790000000 -0.7166660000000 1.0  -0.02
Li     1 -0.1109110000000 -0.5198870000000 -0.7166660000000 1.0  -0.02
O      2  0.2713600000000  0.0174750000000  0.4147430000000 1.0   0.12
O      2  0.1433830000000  0.3972690000000  0.4147430000000 1.0   0.12
O      2 -0.2713600000000 -0.0174750000000 -0.4147430000000 1.0   0.12
O      2 -0.1433830000000 -0.3972690000000 -0.4147430000000 1.0   0.12
S      3  0.5000000000000  0.5000000000000  1.0000000000000 1.0   0.34
Fe     4 -0.5000000000000  0.5000000000000  0.5000000000000 1.0   2.56
Fe     4  0.0000000000000  0.0000000000000  0.5000000000000 1.0   2.56
END
