TITL LFSO-LiFe3S3O2-200909-152557-9ac39d -0.0197 142.536261 -4.57831120E+003 -6.72233 7.00601 9 (P-1) n - 1
REM
REM Run started: Wed, 09 Sep 2020 21:17:34 +0100 in /lustre/scratch/uccabz1/launch_tmp/launcher_2020-09-09-14-25-55-410681
REM CASTEP 20.1 from code version af48c487+ pr-geom-scf-spinfix Tue Jun 2 15:39:59 2020 +0100
REM Functional Perdew Burke Ernzerhof Relativity Koelling-Harmon Dispersion off
REM Cut-off 340.0000 eV Grid scale 1.7500 Gmax 16.5316 1/A FBSC none
REM MP grid 4 3 4 Offset 0.000 0.000 0.000 No. kpts 24 Spacing 0.07
REM Total runtime: 21787.9 s
REM Overall efficiency: 96.7692 %
REM
REM
REM
REM compiler GCC version 4.9.2
REM options -cpp -iprefix /lustre/shared/ucl/apps/gcc/4.9.2/bin/../lib/gcc/x86_64-unknown-linux-gnu/4.9.2/ -mtune=corei7 -march=x86-64 -g -Og
REM COMMAND_LINE
REM seed -1492629706 1179553132 -2115959920 1062317532 1887714536 1374319579 109938430 -493748977 691557957 1488324727 1487753423 1591112300
REM
REM S 3|1.8|5|6|7|30:31:32(qc=5)
REM O 2|1.5|12|13|15|20:21(qc=5)
REM Li 1|1.3|8|9|10|10U:20(qc=5)
REM Fe 3|2.2|2.0|1.0|8|9|10|40:41:32(qc=5)
REM 
CELL 1.54180    5.23720    7.74333    6.07837  132.60211  120.39331   52.79466
LATT -1
SFAC Li O  S  Fe 
Li     1  0.0000000000000  0.5000000000000  0.5000000000000 1.0  -0.03
O      2  0.1341540000000  0.1245570000000  0.2689580000000 1.0  -0.11
O      2 -0.1341540000000 -0.1245570000000 -0.2689580000000 1.0  -0.11
S      3  0.2106350000000  0.1621350000000 -0.1744340000000 1.0   0.02
S      3 -0.2106350000000 -0.1621350000000  0.1744340000000 1.0   0.02
S      3  0.5000000000000 -0.5000000000000 -0.5000000000000 1.0  -0.26
Fe     4 -0.3041800000000  0.1224010000000  0.1104830000000 1.0  -1.84
Fe     4  0.3041800000000 -0.1224010000000 -0.1104830000000 1.0  -1.84
Fe     4 -0.5000000000000  0.0000000000000  0.5000000000000 1.0  -2.57
END
