TITL LFSO-Li3Fe3S5O-200929-012209-a29c0a 0.0400 233.644331 -5.14745438E+003 3.16104 8.25110 12 (C2) n - 1
REM
REM Run started: Tue, 29 Sep 2020 17:16:10 +0100 in /lustre/scratch/uccabz1/launch_tmp/launcher_2020-09-29-00-22-07-961895
REM CASTEP 20.1 from code version af48c487+ pr-geom-scf-spinfix Tue Jun 2 15:39:59 2020 +0100
REM Functional Perdew Burke Ernzerhof Relativity Koelling-Harmon Dispersion off
REM Cut-off 340.0000 eV Grid scale 1.7500 Gmax 16.5316 1/A FBSC none
REM MP grid 5 3 2 Offset 0.000 0.000 0.000 No. kpts 15 Spacing 0.07
REM Total runtime: 59799.4 s
REM Overall efficiency: 98 %
REM
REM
REM
REM compiler GCC version 4.9.2
REM options -cpp -iprefix /lustre/shared/ucl/apps/gcc/4.9.2/bin/../lib/gcc/x86_64-unknown-linux-gnu/4.9.2/ -mtune=corei7 -march=x86-64 -g -Og
REM COMMAND_LINE
REM seed 878409158 750541674 2012812639 1915739740 -1862835449 760540957 -2008284145 240083918 -594673723 -1272804200 -1544569584 916538674
REM
REM S 3|1.8|5|6|7|30:31:32(qc=5)
REM O 2|1.5|12|13|15|20:21(qc=5)
REM Li 1|1.3|8|9|10|10U:20(qc=5)
REM Fe 3|2.2|2.0|1.0|8|9|10|40:41:32(qc=5)
REM 
CELL 1.54180    3.60040    7.04753   10.03837  110.79379  100.78443   88.72961
LATT -1
SFAC Li O  S  Fe 
Li     1  0.4725740000000 -0.3508330000000 -0.1483430000000 1.0   0.02
Li     1  0.3790830000000  0.2024900000000 -0.1483430000000 1.0   0.02
Li     1 -0.4232730000000  0.0767270000000  0.1534540000000 1.0  -0.01
O      2 -0.1791130000000 -0.1791130000000 -0.3582260000000 1.0   0.02
S      3  0.2224220000000  0.4423240000000  0.4199380000000 1.0   0.01
S      3  0.1975150000000 -0.0223860000000  0.4199380000000 1.0   0.01
S      3  0.0296860000000 -0.1449610000000  0.0108360000000 1.0   0.01
S      3 -0.0188500000000  0.1557970000000  0.0108360000000 1.0   0.01
S      3 -0.1360330000000  0.3639670000000 -0.2720670000000 1.0   0.20
Fe     4 -0.2293220000000  0.0376510000000 -0.4359720000000 1.0   2.73
Fe     4 -0.2066500000000 -0.4736240000000 -0.4359720000000 1.0   2.73
Fe     4  0.2686410000000 -0.2313590000000 -0.4627180000000 1.0  -2.58
END
