TITL LFSO-Li4Fe3S4O-200926-064357-04e70b 0.0146 367.453050 -1.00870849E+004 19.5214 19.9461 24 (P2/c) n - 1
REM
REM Run started: Sun, 27 Sep 2020 13:35:12 +0100 in /lustre/scratch/uccabz1/launch_tmp/launcher_2020-09-26-05-43-55-695418
REM CASTEP 20.1 from code version af48c487+ pr-geom-scf-spinfix Tue Jun 2 15:39:59 2020 +0100
REM Functional Perdew Burke Ernzerhof Relativity Koelling-Harmon Dispersion off
REM Cut-off 340.0000 eV Grid scale 1.7500 Gmax 16.5316 1/A FBSC none
REM MP grid 3 3 2 Offset 0.000 0.000 0.000 No. kpts 5 Spacing 0.07
REM Total runtime: 119510 s
REM Overall efficiency: 74.6667 %
REM
REM
REM
REM compiler GCC version 4.9.2
REM options -cpp -iprefix /lustre/shared/ucl/apps/gcc/4.9.2/bin/../lib/gcc/x86_64-unknown-linux-gnu/4.9.2/ -mtune=corei7 -march=x86-64 -g -Og
REM COMMAND_LINE
REM seed 1957673242 -977895038 1065790452 -244279168 -1008202350 550791136 2126699053 -1598508212 1626216757 2062368621 301361855 -2063372688
REM
REM S 3|1.8|5|6|7|30:31:32(qc=5)
REM O 2|1.5|12|13|15|20:21(qc=5)
REM Li 1|1.3|8|9|10|10U:20(qc=5)
REM Fe 3|2.2|2.0|1.0|8|9|10|40:41:32(qc=5)
REM 
CELL 1.54180    7.76550    6.56592    9.38392   90.00000   90.00000  129.82679
LATT -1
SFAC Li O  S  Fe 
Li     1 -0.4518870000000  0.5142030000000  0.3766410000000 1.0  -0.02
Li     1 -0.0481130000000 -0.0142030000000  0.3766410000000 1.0  -0.02
Li     1  0.4518870000000 -0.5142030000000 -0.3766410000000 1.0  -0.02
Li     1  0.0481130000000  0.0142030000000 -0.3766410000000 1.0  -0.02
Li     1 -0.3796180000000  0.4670210000000 -0.1112500000000 1.0  -0.02
Li     1 -0.1203820000000  0.0329790000000 -0.1112500000000 1.0  -0.02
Li     1  0.3796180000000 -0.4670210000000  0.1112500000000 1.0  -0.02
Li     1  0.1203820000000 -0.0329790000000  0.1112500000000 1.0  -0.02
O      2 -0.2500000000000 -0.2500000000000 -0.4591550000000 1.0   0.08
O      2  0.2500000000000  0.2500000000000  0.4591550000000 1.0   0.08
S      3 -0.0190890000000  0.2092180000000  0.1347290000000 1.0   0.21
S      3  0.5190890000000  0.2907820000000  0.1347290000000 1.0   0.21
S      3  0.0190890000000 -0.2092180000000 -0.1347290000000 1.0   0.21
S      3 -0.5190890000000 -0.2907820000000 -0.1347290000000 1.0   0.21
S      3  0.0023400000000  0.3453880000000 -0.3425820000000 1.0   0.17
S      3  0.4976600000000  0.1546120000000 -0.3425820000000 1.0   0.17
S      3 -0.0023400000000 -0.3453880000000  0.3425820000000 1.0   0.17
S      3 -0.4976600000000 -0.1546120000000  0.3425820000000 1.0   0.17
Fe     4  0.6637110000000 -0.0048300000000 -0.4364160000000 1.0   2.84
Fe     4 -0.1637110000000 -0.4951700000000 -0.4364160000000 1.0   2.84
Fe     4 -0.6637110000000  0.0048300000000  0.4364160000000 1.0   2.84
Fe     4  0.1637110000000  0.4951700000000  0.4364160000000 1.0   2.84
Fe     4  0.5000000000000 -0.0000000000000  0.0000000000000 1.0   3.33
Fe     4 -0.0000000000000  0.5000000000000  0.0000000000000 1.0   3.33
END
