TITL LFSO-Li2Fe2S2O-200913-124648-a5a3f3 0.0258 160.531012 -3.17214496E+003 -6.05616 6.15966 7 (P2) n - 1
REM
REM Run started: Sun, 13 Sep 2020 14:02:21 +0100 in /lustre/scratch/uccabz1/launch_tmp/launcher_2020-09-13-11-46-46-500592
REM CASTEP 20.1 from code version af48c487+ pr-geom-scf-spinfix Tue Jun 2 15:39:59 2020 +0100
REM Functional Perdew Burke Ernzerhof Relativity Koelling-Harmon Dispersion off
REM Cut-off 340.0000 eV Grid scale 1.7500 Gmax 16.5316 1/A FBSC none
REM MP grid 4 2 3 Offset 0.000 0.000 0.000 No. kpts 8 Spacing 0.07
REM Total runtime: 4558.2 s
REM Overall efficiency: 90.7 %
REM
REM
REM
REM compiler GCC version 4.9.2
REM options -cpp -iprefix /lustre/shared/ucl/apps/gcc/4.9.2/bin/../lib/gcc/x86_64-unknown-linux-gnu/4.9.2/ -mtune=corei7 -march=x86-64 -g -Og
REM COMMAND_LINE
REM seed -1834982595 -1730548295 1681320505 454167735 -1476133939 209004443 -1313827000 -1738770466 -1099861170 -504677493 1258406210 -950061669
REM
REM S 3|1.8|5|6|7|30:31:32(qc=5)
REM O 2|1.5|12|13|15|20:21(qc=5)
REM Li 1|1.3|8|9|10|10U:20(qc=5)
REM Fe 3|2.2|2.0|1.0|8|9|10|40:41:32(qc=5)
REM 
CELL 1.54180    3.69799    7.73848    5.62094   90.00000   90.00000   93.62834
LATT -1
SFAC Li O  S  Fe 
Li     1  0.1751640000000  0.1558150000000 -0.4471910000000 1.0   0.01
Li     1 -0.1751640000000 -0.1558150000000 -0.4471910000000 1.0   0.01
O      2  0.0000000000000  0.0000000000000  0.3200560000000 1.0  -0.21
S      3 -0.2484090000000  0.2134450000000 -0.1339100000000 1.0  -0.20
S      3  0.2484090000000 -0.2134450000000 -0.1339100000000 1.0  -0.20
Fe     4  0.2658060000000  0.0882130000000  0.0468050000000 1.0  -2.74
Fe     4 -0.2658060000000 -0.0882130000000  0.0468050000000 1.0  -2.74
END
