TITL LFSO-Li4Fe3S3O2-200926-233348-b8bf22 -0.0147 139.006728 -5.17632851E+003 -0.133665E-01 0.251062E-01 12 (C2/m) n - 1
REM
REM Run started: Sun, 27 Sep 2020 06:02:22 +0100 in /lustre/scratch/uccabz1/launch_tmp/launcher_2020-09-26-22-33-47-243517
REM CASTEP 20.1 from code version af48c487+ pr-geom-scf-spinfix Tue Jun 2 15:39:59 2020 +0100
REM Functional Perdew Burke Ernzerhof Relativity Koelling-Harmon Dispersion off
REM Cut-off 340.0000 eV Grid scale 1.7500 Gmax 16.5316 1/A FBSC none
REM MP grid 5 5 2 Offset 0.000 0.000 0.000 No. kpts 25 Spacing 0.07
REM Total runtime: 23667.3 s
REM Overall efficiency: 97.7143 %
REM
REM
REM
REM compiler GCC version 4.9.2
REM options -cpp -iprefix /lustre/shared/ucl/apps/gcc/4.9.2/bin/../lib/gcc/x86_64-unknown-linux-gnu/4.9.2/ -mtune=corei7 -march=x86-64 -g -Og
REM COMMAND_LINE
REM seed -863680793 -1250002824 -1612286067 -1497537769 1167211522 -408224725 -550980749 25853634 540733204 1980676410 -590378568 -741471331
REM
REM S 3|1.8|5|6|7|30:31:32(qc=5)
REM O 2|1.5|12|13|15|20:21(qc=5)
REM Li 1|1.3|8|9|10|10U:20(qc=5)
REM Fe 3|2.2|2.0|1.0|8|9|10|40:41:32(qc=5)
REM 
CELL 1.54180    3.61166    3.61166   12.64627  119.82852   76.59948   94.00415
LATT -1
SFAC Li O  S  Fe 
Li     1 -0.3287880000000 -0.5520660000000 -0.3744890000000 1.0   0.00
Li     1 -0.1775780000000  0.0457010000000  0.3744890000000 1.0   0.00
Li     1  0.3287880000000  0.5520660000000  0.3744890000000 1.0   0.00
Li     1  0.1775780000000 -0.0457010000000 -0.3744890000000 1.0   0.00
O      2 -0.1774560000000 -0.4397260000000  0.3828180000000 1.0  -0.00
O      2  0.1774560000000  0.4397260000000 -0.3828180000000 1.0  -0.00
S      3  0.5854570000000  0.2097480000000 -0.2047950000000 1.0   0.00
S      3 -0.5854570000000 -0.2097480000000  0.2047950000000 1.0   0.00
S      3  0.0000000000000  0.0000000000000 -0.0000000000000 1.0   0.00
Fe     4 -0.0011220000000 -0.1923160000000 -0.1934380000000 1.0  -0.00
Fe     4  0.0011220000000  0.1923160000000  0.1934380000000 1.0  -0.00
Fe     4 -0.5000000000000  0.5000000000000 -0.0000000000000 1.0  -0.01
END
