TITL LFSO-Li2Fe2S2O-200913-122018-2b85a3 0.0013 550.256218 -6.34507909E+003 -13.8637 14.1246 14 (Cm) n - 1
REM
REM Run started: Mon, 14 Sep 2020 05:57:47 +0100 in /lustre/scratch/uccabz1/launch_tmp/launcher_2020-09-13-11-20-16-051223
REM CASTEP 20.1 from code version af48c487+ pr-geom-scf-spinfix Tue Jun 2 15:39:59 2020 +0100
REM Functional Perdew Burke Ernzerhof Relativity Koelling-Harmon Dispersion off
REM Cut-off 340.0000 eV Grid scale 1.7500 Gmax 16.5316 1/A FBSC none
REM MP grid 5 2 2 Offset 0.000 0.000 0.000 No. kpts 8 Spacing 0.07
REM Total runtime: 77596.6 s
REM Overall efficiency: 98.25 %
REM
REM
REM
REM compiler GCC version 4.9.2
REM options -cpp -iprefix /lustre/shared/ucl/apps/gcc/4.9.2/bin/../lib/gcc/x86_64-unknown-linux-gnu/4.9.2/ -mtune=corei7 -march=x86-64 -g -Og
REM COMMAND_LINE
REM seed 1992634545 1786859691 -1219743730 1722267864 -123653030 -1770223615 2040911612 52036270 694270787 -2112844847 -755955032 1118021609
REM
REM S 3|1.8|5|6|7|30:31:32(qc=5)
REM O 2|1.5|12|13|15|20:21(qc=5)
REM Li 1|1.3|8|9|10|10U:20(qc=5)
REM Fe 3|2.2|2.0|1.0|8|9|10|40:41:32(qc=5)
REM 
CELL 1.54180    3.54174   17.46702   17.46702  149.32867   89.10724   89.10724
LATT -1
SFAC Li O  S  Fe 
Li     1  0.0758040000000 -0.3526140000000  0.0100520000000 1.0  -0.02
Li     1  0.0758040000000  0.0100520000000 -0.3526140000000 1.0  -0.02
Li     1  0.0247450000000 -0.0287720000000  0.3442710000000 1.0  -0.01
Li     1  0.0247450000000  0.3442710000000 -0.0287720000000 1.0  -0.01
O      2 -0.1138500000000  0.0599440000000  0.5141810000000 1.0  -0.26
O      2 -0.1138500000000  0.5141810000000  0.0599440000000 1.0  -0.26
S      3 -0.4536110000000  0.1880310000000 -0.2090360000000 1.0  -0.18
S      3 -0.4536110000000 -0.2090360000000  0.1880310000000 1.0  -0.18
S      3  0.2105990000000 -0.6137480000000 -0.2167720000000 1.0  -0.17
S      3  0.2105990000000 -0.2167720000000 -0.6137480000000 1.0  -0.17
Fe     4 -0.3186410000000  0.3863110000000 -0.1307340000000 1.0  -2.98
Fe     4 -0.3186410000000 -0.1307340000000  0.3863110000000 1.0  -2.98
Fe     4  0.3847710000000  0.1396810000000  0.6132390000000 1.0  -3.32
Fe     4  0.3847710000000  0.6132390000000  0.1396810000000 1.0  -3.32
END
