TITL LFSO-Li3Fe3S4O2-200929-194118-978a17 0.0448 431.973728 -1.05653523E+004 6.32260 18.7386 24 (P21) n - 1
REM
REM Run started: Wed, 30 Sep 2020 20:39:20 +0100 in /lustre/scratch/uccabz1/launch_tmp/launcher_2020-09-30-19-01-18-756164
REM CASTEP 20.1 from code version af48c487+ pr-geom-scf-spinfix Tue Jun 2 15:39:59 2020 +0100
REM Functional Perdew Burke Ernzerhof Relativity Koelling-Harmon Dispersion off
REM Cut-off 340.0000 eV Grid scale 1.7500 Gmax 16.5316 1/A FBSC none
REM MP grid 3 3 2 Offset 0.000 0.000 0.000 No. kpts 5 Spacing 0.07
REM Total runtime: 29922.3 s
REM Overall efficiency: 89.4545 %
REM
REM
REM
REM compiler GCC version 4.9.2
REM options -cpp -iprefix /scratch/UCL/applications/gcc/4.9.2/bin/../lib/gcc/x86_64-unknown-linux-gnu/4.9.2/ -mtune=corei7 -march=x86-64 -g -O2
REM COMMAND_LINE
REM seed 1317238068 -1750729651 93518634 -1281505639 -1834097288 2131924417 1532336677 -2013214478 1380366924 1731424641 -936996848 936391577
REM
REM S 3|1.8|5|6|7|30:31:32(qc=5)
REM O 2|1.5|12|13|15|20:21(qc=5)
REM Li 1|1.3|8|9|10|10U:20(qc=5)
REM Fe 3|2.2|2.0|1.0|8|9|10|40:41:32(qc=5)
REM 
CELL 1.54180    5.05773    7.42166   12.02501   90.00000   90.00000  106.86189
LATT -1
SFAC Li O  S  Fe 
Li     1  0.0248010000000  0.5376360000000  0.2414930000000 1.0   0.01
Li     1 -0.0248010000000 -0.5376360000000 -0.2585070000000 1.0   0.01
Li     1  0.5285840000000 -0.0117250000000 -0.2900420000000 1.0  -0.02
Li     1 -0.5285840000000  0.0117250000000  0.2099580000000 1.0  -0.02
Li     1  0.0839200000000  0.0879180000000 -0.1791260000000 1.0   0.01
Li     1 -0.0839200000000 -0.0879180000000  0.3208740000000 1.0   0.01
O      2  0.1133100000000 -0.2764990000000  0.3518210000000 1.0  -0.01
O      2 -0.1133100000000  0.2764990000000 -0.1481790000000 1.0  -0.01
O      2 -0.2361660000000 -0.0765970000000  0.1830820000000 1.0   0.34
O      2  0.2361660000000  0.0765970000000 -0.3169180000000 1.0   0.34
S      3  0.0453680000000  0.4198580000000 -0.4483870000000 1.0  -0.06
S      3 -0.0453680000000 -0.4198580000000  0.0516130000000 1.0  -0.06
S      3  0.3428610000000  0.1466320000000  0.3933900000000 1.0   0.03
S      3 -0.3428610000000 -0.1466320000000 -0.1066100000000 1.0   0.03
S      3  0.4979930000000  0.4371090000000  0.3406370000000 1.0  -0.03
S      3 -0.4979930000000 -0.4371090000000 -0.1593630000000 1.0  -0.03
S      3 -0.2882280000000 -0.1668670000000 -0.4657450000000 1.0  -0.04
S      3  0.2882280000000  0.1668670000000  0.0342550000000 1.0  -0.04
Fe     4  0.3510680000000 -0.3598190000000  0.4394840000000 1.0   2.72
Fe     4 -0.3510680000000  0.3598190000000 -0.0605160000000 1.0   2.72
Fe     4  0.0971240000000  0.1123550000000 -0.4472650000000 1.0   3.13
Fe     4 -0.0971240000000 -0.1123550000000  0.0527350000000 1.0   3.13
Fe     4 -0.1607240000000 -0.4007560000000  0.4549940000000 1.0  -2.92
Fe     4  0.1607240000000  0.4007560000000 -0.0450060000000 1.0  -2.92
END
