TITL LFSO-Li4Fe3S2O3-200927-141532-18ef3c 0.0493 501.960899 -1.06238960E+004 -16.2092 16.8258 24 (Pmc21) n - 1
REM
REM Run started: Mon, 28 Sep 2020 12:58:01 +0100 in /lustre/scratch/uccabz1/launch_tmp/launcher_2020-09-27-13-15-30-499457
REM CASTEP 20.1 from code version af48c487+ pr-geom-scf-spinfix Tue Jun 2 15:39:59 2020 +0100
REM Functional Perdew Burke Ernzerhof Relativity Koelling-Harmon Dispersion off
REM Cut-off 340.0000 eV Grid scale 1.7500 Gmax 16.5316 1/A FBSC none
REM MP grid 4 2 2 Offset 0.000 0.000 0.000 No. kpts 2 Spacing 0.07
REM Total runtime: 33479.5 s
REM Overall efficiency: 82.4615 %
REM
REM
REM
REM compiler GCC version 4.9.2
REM options -cpp -iprefix /lustre/shared/ucl/apps/gcc/4.9.2/bin/../lib/gcc/x86_64-unknown-linux-gnu/4.9.2/ -mtune=corei7 -march=x86-64 -g -Og
REM COMMAND_LINE
REM seed -1446143842 -82836366 632797861 1972360592 1091955499 -690008431 33529008 -1090136751 1443906245 578040432 -1972038515 -2052684250
REM
REM S 3|1.8|5|6|7|30:31:32(qc=5)
REM O 2|1.5|12|13|15|20:21(qc=5)
REM Li 1|1.3|8|9|10|10U:20(qc=5)
REM Fe 3|2.2|2.0|1.0|8|9|10|40:41:32(qc=5)
REM 
CELL 1.54180    3.78264   11.91556   11.13680   90.00000   90.00000   90.00000
LATT -1
SFAC Li O  S  Fe 
Li     1 -0.0667840000000  0.2813320000000  0.2435930000000 1.0   0.03
Li     1  0.0667840000000 -0.2813320000000 -0.2564070000000 1.0   0.03
Li     1  0.0667840000000  0.2813320000000 -0.2564070000000 1.0   0.03
Li     1 -0.0667840000000 -0.2813320000000  0.2435930000000 1.0   0.03
Li     1  0.4788370000000 -0.2949810000000 -0.4259500000000 1.0  -0.02
Li     1 -0.4788370000000  0.2949810000000  0.0740500000000 1.0  -0.02
Li     1 -0.4788370000000 -0.2949810000000  0.0740500000000 1.0  -0.02
Li     1  0.4788370000000  0.2949810000000 -0.4259500000000 1.0  -0.02
O      2  0.4483700000000  0.3438820000000  0.2258790000000 1.0  -0.07
O      2 -0.4483700000000 -0.3438820000000 -0.2741210000000 1.0  -0.07
O      2 -0.4483700000000  0.3438820000000 -0.2741210000000 1.0  -0.07
O      2  0.4483700000000 -0.3438820000000  0.2258790000000 1.0  -0.07
O      2 -0.4619790000000  0.5000000000000  0.0169330000000 1.0  -0.14
O      2  0.4619790000000  0.5000000000000 -0.4830670000000 1.0  -0.14
S      3  0.0286130000000 -0.2808460000000 -0.0483280000000 1.0  -0.15
S      3 -0.0286130000000  0.2808460000000  0.4516720000000 1.0  -0.15
S      3 -0.0286130000000 -0.2808460000000  0.4516720000000 1.0  -0.15
S      3  0.0286130000000  0.2808460000000 -0.0483280000000 1.0  -0.15
Fe     4 -0.4277570000000  0.4006590000000 -0.1143260000000 1.0  -2.50
Fe     4  0.4277570000000 -0.4006590000000  0.3856740000000 1.0  -2.50
Fe     4  0.4277570000000  0.4006590000000  0.3856740000000 1.0  -2.50
Fe     4 -0.4277570000000 -0.4006590000000 -0.1143260000000 1.0  -2.50
Fe     4  0.4332540000000 -0.5000000000000  0.1978110000000 1.0  -2.52
Fe     4 -0.4332540000000 -0.5000000000000 -0.3021890000000 1.0  -2.52
END
