TITL LFSO-Li2Fe4S3O2-200912-045300-471000 0.0001 168.490158 -5.63575562E+003 0.130472E-01 0.170753E-01 11 (P2/m) n - 1
REM
REM Run started: Sat, 12 Sep 2020 07:29:48 +0100 in /lustre/scratch/uccabz1/launch_tmp/launcher_2020-09-12-03-52-57-590194
REM CASTEP 20.1 from code version af48c487+ pr-geom-scf-spinfix Tue Jun 2 15:39:59 2020 +0100
REM Functional Perdew Burke Ernzerhof Relativity Koelling-Harmon Dispersion off
REM Cut-off 340.0000 eV Grid scale 1.7500 Gmax 16.5316 1/A FBSC none
REM MP grid 5 4 2 Offset 0.000 0.000 0.000 No. kpts 10 Spacing 0.07
REM Total runtime: 9453.29 s
REM Overall efficiency: 80.1111 %
REM
REM
REM
REM compiler GCC version 4.9.2
REM options -cpp -iprefix /lustre/shared/ucl/apps/gcc/4.9.2/bin/../lib/gcc/x86_64-unknown-linux-gnu/4.9.2/ -mtune=corei7 -march=x86-64 -g -Og
REM COMMAND_LINE
REM seed -1972741939 1720862128 -220849346 -1429159671 1467241126 -240408165 -1802495797 -2011705738 474177910 505910353 -264518625 111324717
REM
REM S 3|1.8|5|6|7|30:31:32(qc=5)
REM O 2|1.5|12|13|15|20:21(qc=5)
REM Li 1|1.3|8|9|10|10U:20(qc=5)
REM Fe 3|2.2|2.0|1.0|8|9|10|40:41:32(qc=5)
REM 
CELL 1.54180    3.25138    4.39390   11.79440   90.00000   90.53229   90.00000
LATT -1
SFAC Li O  S  Fe 
Li     1 -0.3068430000000  0.5000000000000  0.3287400000000 1.0
Li     1  0.3068430000000 -0.5000000000000 -0.3287400000000 1.0
O      2 -0.1789760000000  0.0000000000000  0.3630650000000 1.0
O      2  0.1789760000000  0.0000000000000 -0.3630650000000 1.0
S      3  0.1036250000000  0.0000000000000  0.2515960000000 1.0
S      3 -0.1036250000000  0.0000000000000 -0.2515960000000 1.0
S      3  0.5000000000000  0.0000000000000  0.0000000000000 1.0
Fe     4  0.0093670000000 -0.2697500000000 -0.1020100000000 1.0
Fe     4 -0.0093670000000 -0.2697500000000  0.1020100000000 1.0
Fe     4 -0.0093670000000  0.2697500000000  0.1020100000000 1.0
Fe     4  0.0093670000000  0.2697500000000 -0.1020100000000 1.0
END
