TITL LFSO-Li2Fe3S2O2-200921-035844-ec2a9e 0.3170 272.345691 -8.94782431E+003 18.1236 18.6929 18 (R3) n - 1
REM
REM Run started: Mon, 21 Sep 2020 14:58:49 +0100 in /lustre/scratch/uccabz1/launch_tmp/launcher_2020-09-21-13-47-14-683146
REM CASTEP 20.1 from code version af48c487+ pr-geom-scf-spinfix Tue Jun 2 15:39:59 2020 +0100
REM Functional Perdew Burke Ernzerhof Relativity Koelling-Harmon Dispersion off
REM Cut-off 340.0000 eV Grid scale 1.7500 Gmax 16.5316 1/A FBSC none
REM MP grid 3 3 3 Offset 0.000 0.000 0.000 No. kpts 6 Spacing 0.07
REM Total runtime: 38081.9 s
REM Overall efficiency: 97.75 %
REM
REM
REM
REM compiler GCC version 4.9.2
REM options -cpp -iprefix /lustre/shared/ucl/apps/gcc/4.9.2/bin/../lib/gcc/x86_64-unknown-linux-gnu/4.9.2/ -mtune=corei7 -march=x86-64 -g -Og
REM COMMAND_LINE
REM seed -1884753054 -1858006679 -1407281418 -1871210707 1838693470 -1761981006 -108100614 562967370 1960448236 779264394 -1783017599 -93071655
REM
REM S 3|1.8|5|6|7|30:31:32(qc=5)
REM O 2|1.5|12|13|15|20:21(qc=5)
REM Li 1|1.3|8|9|10|10U:20(qc=5)
REM Fe 3|2.2|2.0|1.0|8|9|10|40:41:32(qc=5)
REM 
CELL 1.54180    6.81399    6.81399    6.81399   70.54177   70.54177   70.54177
LATT -1
SFAC Li O  S  Fe 
Li     1 -0.1661460000000 -0.2416420000000 -0.5719080000000 1.0  -0.01
Li     1 -0.2416420000000 -0.5719080000000 -0.1661460000000 1.0  -0.01
Li     1 -0.5719080000000 -0.1661460000000 -0.2416420000000 1.0  -0.01
Li     1  0.4799470000000  0.4799470000000  0.4799470000000 1.0  -0.00
O      2 -0.3878260000000  0.2682560000000 -0.2075340000000 1.0   0.24
O      2  0.2682560000000 -0.2075340000000 -0.3878260000000 1.0   0.24
O      2 -0.2075340000000 -0.3878260000000  0.2682560000000 1.0   0.24
O      2 -0.2603810000000 -0.2603810000000 -0.2603810000000 1.0   0.14
S      3 -0.3543720000000  0.1266750000000  0.3557800000000 1.0   0.15
S      3  0.1266750000000  0.3557800000000 -0.3543720000000 1.0   0.15
S      3  0.3557800000000 -0.3543720000000  0.1266750000000 1.0   0.15
S      3  0.1783140000000  0.1783140000000  0.1783140000000 1.0   0.05
Fe     4  0.1144650000000  0.0765420000000 -0.4586720000000 1.0   3.00
Fe     4  0.0765420000000 -0.4586720000000  0.1144650000000 1.0   3.00
Fe     4 -0.4586720000000  0.1144650000000  0.0765420000000 1.0   3.00
Fe     4  0.0392440000000 -0.3252680000000 -0.2580250000000 1.0   2.60
Fe     4 -0.3252680000000 -0.2580250000000  0.0392440000000 1.0   2.60
Fe     4 -0.2580250000000  0.0392440000000 -0.3252680000000 1.0   2.60
END
