TITL LFSO-Li4Fe2SO4-200910-134036-1a834d 0.0378 205.821858 -4.57954102E+003 6.40890 6.56875 11 (F222) n - 1
REM
REM Run started: Thu, 10 Sep 2020 18:43:10 +0100 in /lustre/scratch/uccabz1/launch_tmp/launcher_2020-09-10-12-40-33-840404
REM CASTEP 20.1 from code version af48c487+ pr-geom-scf-spinfix Tue Jun 2 15:39:59 2020 +0100
REM Functional Perdew Burke Ernzerhof Relativity Koelling-Harmon Dispersion off
REM Cut-off 340.0000 eV Grid scale 1.7500 Gmax 16.5316 1/A FBSC none
REM MP grid 4 4 3 Offset 0.000 0.000 0.000 No. kpts 16 Spacing 0.07
REM Total runtime: 19581.5 s
REM Overall efficiency: 96.8462 %
REM
REM
REM
REM compiler GCC version 4.9.2
REM options -cpp -iprefix /lustre/shared/ucl/apps/gcc/4.9.2/bin/../lib/gcc/x86_64-unknown-linux-gnu/4.9.2/ -mtune=corei7 -march=x86-64 -g -Og
REM COMMAND_LINE
REM seed 206376735 1660949188 525407359 -1335972765 -1080033548 -742591269 364707010 1109040237 -1183298993 718833649 1875196575 1154819667
REM
REM S 3|1.8|5|6|7|30:31:32(qc=5)
REM O 2|1.5|12|13|15|20:21(qc=5)
REM Li 1|1.3|8|9|10|10U:20(qc=5)
REM Fe 3|2.2|2.0|1.0|8|9|10|40:41:32(qc=5)
REM 
CELL 1.54180    6.94288    6.94288    6.35990  100.72553  100.72553  131.22712
LATT -1
SFAC Li O  S  Fe 
Li     1  0.3813220000000  0.0847600000000 -0.0052480000000 1.0  -0.01
Li     1 -0.0847600000000 -0.3813220000000  0.0052480000000 1.0  -0.01
Li     1  0.0900080000000  0.3865700000000  0.0052480000000 1.0  -0.01
Li     1 -0.3865700000000 -0.0900080000000 -0.0052480000000 1.0  -0.01
O      2  0.3118900000000 -0.1103050000000  0.2239760000000 1.0   0.22
O      2  0.1103050000000 -0.3118900000000 -0.2239760000000 1.0   0.22
O      2 -0.3342810000000  0.0879140000000 -0.2239760000000 1.0   0.22
O      2 -0.0879140000000  0.3342810000000  0.2239760000000 1.0   0.22
S      3 -0.5000000000000 -0.5000000000000  0.0000000000000 1.0   0.46
Fe     4  0.5589590000000  0.0589590000000 -0.5000000000000 1.0   2.54
Fe     4 -0.0589590000000 -0.5589590000000 -0.5000000000000 1.0   2.54
END
