TITL LFSO-Li4FeSO2-200910-082619-e9f5e0 -0.0319 419.184657 -8.52728917E+003 12.0000 12.4673 24 (R3) n - 1
REM
REM Run started: Thu, 10 Sep 2020 13:30:18 +0100 in /lustre/scratch/uccabz1/launch_tmp/launcher_2020-09-10-12-21-18-111927
REM CASTEP 20.1 from code version af48c487+ pr-geom-scf-spinfix Tue Jun 2 15:39:59 2020 +0100
REM Functional Perdew Burke Ernzerhof Relativity Koelling-Harmon Dispersion off
REM Cut-off 340.0000 eV Grid scale 1.7500 Gmax 16.5316 1/A FBSC none
REM MP grid 3 3 3 Offset 0.000 0.000 0.000 No. kpts 6 Spacing 0.07
REM Total runtime: 18315.5 s
REM Overall efficiency: 80.3571 %
REM
REM
REM
REM compiler GCC version 4.9.2
REM options -cpp -iprefix /lustre/shared/ucl/apps/gcc/4.9.2/bin/../lib/gcc/x86_64-unknown-linux-gnu/4.9.2/ -mtune=corei7 -march=x86-64 -g -Og
REM COMMAND_LINE
REM seed 34678979 -587148823 1287771058 -1587423269 -1508549375 231427451 -2083624108 626178385 342321934 -529326597 1015640772 -2077189719
REM
REM S 3|1.8|5|6|7|30:31:32(qc=5)
REM O 2|1.5|12|13|15|20:21(qc=5)
REM Li 1|1.3|8|9|10|10U:20(qc=5)
REM Fe 3|2.2|2.0|1.0|8|9|10|40:41:32(qc=5)
REM 
CELL 1.54180    7.93660    7.93660    7.93660   68.83615   68.83615   68.83615
LATT -1
SFAC Li O  S  Fe 
Li     1 -0.1968420000000  0.2893510000000  0.6886690000000 1.0  -0.01
Li     1  0.2893510000000  0.6886690000000 -0.1968420000000 1.0  -0.01
Li     1  0.6886690000000 -0.1968420000000  0.2893510000000 1.0  -0.01
Li     1 -0.0905240000000 -0.3612270000000  0.5178340000000 1.0   0.01
Li     1 -0.3612270000000  0.5178340000000 -0.0905240000000 1.0   0.01
Li     1  0.5178340000000 -0.0905240000000 -0.3612270000000 1.0   0.01
Li     1  0.0175990000000 -0.0962490000000  0.3152290000000 1.0  -0.12
Li     1 -0.0962490000000  0.3152290000000  0.0175990000000 1.0  -0.12
Li     1  0.3152290000000  0.0175990000000 -0.0962490000000 1.0  -0.12
Li     1  0.0862010000000 -0.5313780000000  0.2003240000000 1.0   0.05
Li     1 -0.5313780000000  0.2003240000000  0.0862010000000 1.0   0.05
Li     1  0.2003240000000  0.0862010000000 -0.5313780000000 1.0   0.05
O      2  0.0938880000000 -0.3447630000000  0.2784900000000 1.0   0.24
O      2 -0.3447630000000  0.2784900000000  0.0938880000000 1.0   0.24
O      2  0.2784900000000  0.0938880000000 -0.3447630000000 1.0   0.24
O      2 -0.2569240000000 -0.1138360000000  0.4455950000000 1.0   0.20
O      2 -0.1138360000000  0.4455950000000 -0.2569240000000 1.0   0.20
O      2  0.4455950000000 -0.2569240000000 -0.1138360000000 1.0   0.20
S      3  0.3875190000000 -0.1001640000000  0.2530610000000 1.0   0.14
S      3 -0.1001640000000  0.2530610000000  0.3875190000000 1.0   0.14
S      3  0.2530610000000  0.3875190000000 -0.1001640000000 1.0   0.14
Fe     4  0.3182370000000 -0.2898620000000  0.1402570000000 1.0   3.48
Fe     4 -0.2898620000000  0.1402570000000  0.3182370000000 1.0   3.48
Fe     4  0.1402570000000  0.3182370000000 -0.2898620000000 1.0   3.48
END
