TITL LFSO-Li4Fe3S2O3-200928-050418-bfde62 -0.0314 348.647052 -1.06237098E+004 -22.0851 22.4802 24 (R3) n - 1
REM
REM Run started: Mon, 28 Sep 2020 18:52:52 +0100 in /scratch/scratch/uccabz1/launch_tmp/launcher_2020-09-28-04-04-15-455535
REM CASTEP 19.11| from code version Version unavailable
REM Functional Perdew Burke Ernzerhof Relativity Koelling-Harmon Dispersion off
REM Cut-off 340.0000 eV Grid scale 1.7500 Gmax 16.5316 1/A FBSC none
REM MP grid 3 3 3 Offset 0.000 0.000 0.000 No. kpts 6 Spacing 0.07
REM Total runtime: 55145.8 s
REM Overall efficiency: 99 %
REM
REM
REM
REM compiler GCC version 4.9.2
REM options -cpp -iprefix /scratch/UCL/applications/gcc/4.9.2/bin/../lib/gcc/x86_64-unknown-linux-gnu/4.9.2/ -mtune=corei7 -march=x86-64 -g -O2
REM COMMAND_LINE
REM seed -208608140 -1023546192 -730294298 1627425902 -613238794 -582015251 176602864 -553790722 2020522448 -2003290458 48929271 -1960442329
REM
REM S 3|1.8|5|6|7|30:31:32(qc=5)
REM O 2|1.5|12|13|15|20:21(qc=5)
REM Li 1|1.3|8|9|10|10U:20(qc=5)
REM Fe 3|2.2|2.0|1.0|8|9|10|40:41:32(qc=5)
REM 
CELL 1.54180    8.53507    8.53507    7.40428   54.80505   54.80505   60.00000
LATT -1
SFAC Li O  S  Fe 
Li     1  0.2939690000000 -0.4011070000000  0.0253640000000 1.0   0.03
Li     1 -0.4011070000000  0.0817750000000  0.0253640000000 1.0   0.03
Li     1  0.0817750000000  0.2939690000000  0.0253640000000 1.0   0.03
Li     1  0.3961360000000 -0.2125970000000  0.1200030000000 1.0   0.01
Li     1 -0.2125970000000 -0.3035420000000  0.1200030000000 1.0   0.01
Li     1 -0.3035420000000  0.3961360000000  0.1200030000000 1.0   0.01
Li     1 -0.0775230000000 -0.0775230000000  0.2325700000000 1.0  -0.04
Li     1  0.4365330000000  0.4365330000000 -0.3095990000000 1.0  -0.09
O      2 -0.3999720000000 -0.1017790000000 -0.0230520000000 1.0  -0.27
O      2 -0.1017790000000  0.5248020000000 -0.0230520000000 1.0  -0.27
O      2  0.5248020000000 -0.3999720000000 -0.0230520000000 1.0  -0.27
O      2  0.1140720000000 -0.1452940000000  0.3388520000000 1.0  -0.26
O      2 -0.1452940000000 -0.3076300000000  0.3388520000000 1.0  -0.26
O      2 -0.3076300000000  0.1140720000000  0.3388520000000 1.0  -0.26
S      3  0.2317030000000  0.3407150000000 -0.3796500000000 1.0  -0.21
S      3  0.3407150000000 -0.1927680000000 -0.3796500000000 1.0  -0.21
S      3 -0.1927680000000  0.2317030000000 -0.3796500000000 1.0  -0.21
S      3  0.2750200000000  0.2750200000000 -0.8250600000000 1.0  -0.24
Fe     4  0.6951890000000 -0.0187010000000 -0.3412500000000 1.0  -3.10
Fe     4 -0.0187010000000 -0.3352380000000 -0.3412500000000 1.0  -3.10
Fe     4 -0.3352380000000  0.6951890000000 -0.3412500000000 1.0  -3.10
Fe     4  0.0081130000000  0.4303330000000  0.4616660000000 1.0  -3.43
Fe     4  0.4303330000000  0.0998890000000  0.4616660000000 1.0  -3.43
Fe     4  0.0998890000000  0.0081130000000  0.4616660000000 1.0  -3.43
END
