TITL LFSO-Li3Fe3S5O-200929-000637-ed7beb -0.0112 165.213221 -5.14983840E+003 -2.99004 3.36642 12 (P31m) n - 1
REM
REM Run started: Tue, 29 Sep 2020 02:01:34 +0100 in /lustre/scratch/uccabz1/launch_tmp/launcher_2020-09-28-23-06-35-251549
REM CASTEP 20.1 from code version af48c487+ pr-geom-scf-spinfix Tue Jun 2 15:39:59 2020 +0100
REM Functional Perdew Burke Ernzerhof Relativity Koelling-Harmon Dispersion off
REM Cut-off 340.0000 eV Grid scale 1.7500 Gmax 16.5316 1/A FBSC none
REM MP grid 3 3 3 Offset 0.000 0.000 0.000 No. kpts 8 Spacing 0.07
REM Total runtime: 7630.74 s
REM Overall efficiency: 96.625 %
REM
REM
REM
REM compiler GCC version 4.9.2
REM options -cpp -iprefix /lustre/shared/ucl/apps/gcc/4.9.2/bin/../lib/gcc/x86_64-unknown-linux-gnu/4.9.2/ -mtune=corei7 -march=x86-64 -g -Og
REM COMMAND_LINE
REM seed 1940870190 -1388619967 2140492888 1484284296 -390399846 -1183886809 -1910786819 -1268304196 -844351210 -1538953918 -921533702 615066559
REM
REM S 3|1.8|5|6|7|30:31:32(qc=5)
REM O 2|1.5|12|13|15|20:21(qc=5)
REM Li 1|1.3|8|9|10|10U:20(qc=5)
REM Fe 3|2.2|2.0|1.0|8|9|10|40:41:32(qc=5)
REM 
CELL 1.54180    5.73510    5.73510    5.80006   90.00000   90.00000  120.00000
LATT -1
SFAC Li O  S  Fe 
Li     1 -0.0030670000000  0.2942260000000  0.1716920000000 1.0   0.01
Li     1 -0.2942260000000 -0.2972930000000  0.1716920000000 1.0   0.01
Li     1  0.2972930000000  0.0030670000000  0.1716920000000 1.0   0.01
O      2  0.0000000000000 -0.0000000000000  0.4225940000000 1.0  -0.10
S      3 -0.3448050000000  0.0000340000000 -0.1571640000000 1.0  -0.02
S      3 -0.0000340000000 -0.3448380000000 -0.1571640000000 1.0  -0.02
S      3  0.3448380000000  0.3448050000000 -0.1571640000000 1.0  -0.02
S      3  0.3333330000000 -0.3333330000000  0.4244380000000 1.0   0.01
S      3 -0.3333330000000  0.3333330000000  0.4251690000000 1.0   0.01
Fe     4 -0.2979870000000 -0.2978310000000 -0.3794110000000 1.0  -0.95
Fe     4  0.2978310000000 -0.0001550000000 -0.3794110000000 1.0  -0.95
Fe     4  0.0001550000000  0.2979870000000 -0.3794110000000 1.0  -0.95
END
