TITL LFSO-Li2Fe4S3O2-200912-061156-2848cb -0.0410 188.764793 -5.63900027E+003 -11.0077 11.5541 11 (P3) n - 1
REM
REM Run started: Sat, 12 Sep 2020 11:23:43 +0100 in /lustre/scratch/uccabz1/launch_tmp/launcher_2020-09-12-05-11-54-454487
REM CASTEP 20.1 from code version af48c487+ pr-geom-scf-spinfix Tue Jun 2 15:39:59 2020 +0100
REM Functional Perdew Burke Ernzerhof Relativity Koelling-Harmon Dispersion off
REM Cut-off 340.0000 eV Grid scale 1.7500 Gmax 16.5316 1/A FBSC none
REM MP grid 3 3 3 Offset 0.000 0.000 0.000 No. kpts 8 Spacing 0.07
REM Total runtime: 18762.3 s
REM Overall efficiency: 94.6 %
REM
REM
REM
REM compiler GCC version 4.9.2
REM options -cpp -iprefix /lustre/shared/ucl/apps/gcc/4.9.2/bin/../lib/gcc/x86_64-unknown-linux-gnu/4.9.2/ -mtune=corei7 -march=x86-64 -g -Og
REM COMMAND_LINE
REM seed 2078765435 805584343 -2056724178 -1260372708 -917256931 -678966493 -265679356 -1891288639 1690078657 -1966148985 27081663 2129866938
REM
REM S 3|1.8|5|6|7|30:31:32(qc=5)
REM O 2|1.5|12|13|15|20:21(qc=5)
REM Li 1|1.3|8|9|10|10U:20(qc=5)
REM Fe 3|2.2|2.0|1.0|8|9|10|40:41:32(qc=5)
REM 
CELL 1.54180    5.83822    5.83822    6.39484   90.00000   90.00000  120.00000
LATT -1
SFAC Li O  S  Fe 
Li     1  0.3333330000000 -0.3333330000000 -0.0118550000000 1.0   0.02
Li     1  0.3333330000000 -0.3333330000000 -0.4093870000000 1.0  -0.05
O      2  0.3333330000000 -0.3333330000000  0.2854820000000 1.0  -0.20
O      2 -0.0000000000000  0.0000000000000  0.3956760000000 1.0  -0.27
S      3 -0.2980320000000 -0.3198610000000 -0.1385420000000 1.0  -0.06
S      3  0.3198610000000  0.0218290000000 -0.1385420000000 1.0  -0.06
S      3 -0.0218290000000  0.2980320000000 -0.1385420000000 1.0  -0.06
Fe     4  0.2277810000000 -0.0422560000000  0.2059940000000 1.0  -3.00
Fe     4  0.0422560000000  0.2700370000000  0.2059940000000 1.0  -3.00
Fe     4 -0.2700370000000 -0.2277810000000  0.2059940000000 1.0  -3.00
Fe     4 -0.3333330000000  0.3333330000000 -0.0004500000000 1.0  -1.34
END
