TITL LFSO-Li6FeS3O-200910-022749-4c0c52 -0.0114 352.137491 -6.82588732E+003 -8.00000 8.10830 22 (R3) n - 1
REM
REM Run started: Thu, 10 Sep 2020 08:43:57 +0100 in /lustre/scratch/uccabz1/launch_tmp/launcher_2020-09-10-01-27-47-997619
REM CASTEP 20.1 from code version af48c487+ pr-geom-scf-spinfix Tue Jun 2 15:39:59 2020 +0100
REM Functional Perdew Burke Ernzerhof Relativity Koelling-Harmon Dispersion off
REM Cut-off 340.0000 eV Grid scale 1.7500 Gmax 16.5316 1/A FBSC none
REM MP grid 3 3 3 Offset 0.000 0.000 0.000 No. kpts 6 Spacing 0.07
REM Total runtime: 23349.8 s
REM Overall efficiency: 86 %
REM
REM
REM
REM compiler GCC version 4.9.2
REM options -cpp -iprefix /lustre/shared/ucl/apps/gcc/4.9.2/bin/../lib/gcc/x86_64-unknown-linux-gnu/4.9.2/ -mtune=corei7 -march=x86-64 -g -Og
REM COMMAND_LINE
REM seed -223784483 1668426052 -590790100 -1892388616 57303363 666300777 1392950700 -1761783814 -595643519 -993672628 1583915245 1278643933
REM
REM S 3|1.8|5|6|7|30:31:32(qc=5)
REM O 2|1.5|12|13|15|20:21(qc=5)
REM Li 1|1.3|8|9|10|10U:20(qc=5)
REM Fe 3|2.2|2.0|1.0|8|9|10|40:41:32(qc=5)
REM 
CELL 1.54180    7.06235    7.06235    7.06235   90.82082   90.82082   90.82082
LATT -1
SFAC Li O  S  Fe 
Li     1  0.2854690000000 -0.2618140000000 -0.0644980000000 1.0   0.01
Li     1 -0.0644980000000  0.2854690000000 -0.2618140000000 1.0   0.01
Li     1 -0.2618140000000 -0.0644980000000  0.2854690000000 1.0   0.01
Li     1 -0.5891770000000  0.0688310000000  0.1659480000000 1.0  -0.02
Li     1  0.1659480000000 -0.5891770000000  0.0688310000000 1.0  -0.02
Li     1  0.0688310000000  0.1659480000000 -0.5891770000000 1.0  -0.02
Li     1 -0.2854350000000 -0.5658270000000  0.2098600000000 1.0   0.00
Li     1  0.2098600000000 -0.2854350000000 -0.5658270000000 1.0   0.00
Li     1 -0.5658270000000  0.2098600000000 -0.2854350000000 1.0   0.00
Li     1 -0.3122680000000 -0.2835710000000 -0.0376070000000 1.0   0.01
Li     1 -0.0376070000000 -0.3122680000000 -0.2835710000000 1.0   0.01
Li     1 -0.2835710000000 -0.0376070000000 -0.3122680000000 1.0   0.01
O      2  0.1695920000000  0.1695920000000  0.1695920000000 1.0  -0.23
O      2 -0.2955330000000 -0.2955330000000 -0.2955330000000 1.0  -0.21
S      3  0.2394730000000 -0.5162970000000  0.6986070000000 1.0  -0.07
S      3  0.6986070000000  0.2394730000000 -0.5162970000000 1.0  -0.07
S      3 -0.5162970000000  0.6986070000000  0.2394730000000 1.0  -0.07
S      3 -0.3001260000000  0.1378500000000 -0.0163490000000 1.0  -0.11
S      3 -0.0163490000000 -0.3001260000000  0.1378500000000 1.0  -0.11
S      3  0.1378500000000 -0.0163490000000 -0.3001260000000 1.0  -0.11
Fe     4 -0.4497650000000 -0.4497650000000 -0.4497650000000 1.0  -3.54
Fe     4  0.0143770000000  0.0143770000000  0.0143770000000 1.0  -3.46
END
