TITL LFSO-LiFe3SO4-200909-003909-59673c 0.0125 424.246168 -9.68626940E+003 -11.7664 25.1833 18 (P222) n - 1
REM
REM Run started: Wed, 09 Sep 2020 22:22:51 +0100 in /lustre/scratch/uccabz1/launch_tmp/launcher_2020-09-08-23-39-07-141623
REM CASTEP 20.1 from code version af48c487+ pr-geom-scf-spinfix Tue Jun 2 15:39:59 2020 +0100
REM Functional Perdew Burke Ernzerhof Relativity Koelling-Harmon Dispersion off
REM Cut-off 340.0000 eV Grid scale 1.7500 Gmax 16.5316 1/A FBSC none
REM MP grid 3 3 2 Offset 0.000 0.000 0.000 No. kpts 4 Spacing 0.07
REM Total runtime: 69899.8 s
REM Overall efficiency: 98 %
REM
REM
REM
REM compiler GCC version 4.9.2
REM options -cpp -iprefix /lustre/shared/ucl/apps/gcc/4.9.2/bin/../lib/gcc/x86_64-unknown-linux-gnu/4.9.2/ -mtune=corei7 -march=x86-64 -g -Og
REM COMMAND_LINE
REM seed -125102379 1388944411 -121548549 1021064373 -1400427033 -588407131 230239842 139075869 -1435062448 -181292855 631756389 1198896894
REM
REM S 3|1.8|5|6|7|30:31:32(qc=5)
REM O 2|1.5|12|13|15|20:21(qc=5)
REM Li 1|1.3|8|9|10|10U:20(qc=5)
REM Fe 3|2.2|2.0|1.0|8|9|10|40:41:32(qc=5)
REM 
CELL 1.54180    6.25380    5.89205   11.51350   90.00000   90.00000   90.00000
LATT -1
SFAC Li O  S  Fe 
Li     1  0.2428590000000  0.5000000000000  0.5000000000000 1.0  -0.01
Li     1 -0.2428590000000 -0.5000000000000  0.5000000000000 1.0  -0.01
O      2 -0.1717060000000 -0.2013810000000 -0.4311130000000 1.0  -0.41
O      2  0.1717060000000 -0.2013810000000  0.4311130000000 1.0  -0.41
O      2 -0.1717060000000  0.2013810000000  0.4311130000000 1.0  -0.41
O      2  0.1717060000000  0.2013810000000 -0.4311130000000 1.0  -0.41
O      2 -0.2874850000000  0.3114220000000 -0.2993080000000 1.0  -0.08
O      2  0.2874850000000  0.3114220000000  0.2993080000000 1.0  -0.08
O      2 -0.2874850000000 -0.3114220000000  0.2993080000000 1.0  -0.08
O      2  0.2874850000000 -0.3114220000000 -0.2993080000000 1.0  -0.08
S      3  0.0000000000000  0.3376410000000  0.0000000000000 1.0  -0.97
S      3  0.0000000000000 -0.3376410000000  0.0000000000000 1.0  -0.97
Fe     4  0.1523510000000 -0.1266960000000 -0.3967240000000 1.0  -3.61
Fe     4 -0.1523510000000 -0.1266960000000  0.3967240000000 1.0  -3.61
Fe     4  0.1523510000000  0.1266960000000  0.3967240000000 1.0  -3.61
Fe     4 -0.1523510000000  0.1266960000000 -0.3967240000000 1.0  -3.61
Fe     4 -0.5000000000000 -0.5000000000000 -0.2824460000000 1.0   3.32
Fe     4 -0.5000000000000 -0.5000000000000  0.2824460000000 1.0   3.32
END
