TITL LFSO-Li2Fe4S4O-200911-224129-85ef2b -0.0092 184.678341 -5.50667864E+003 6.09279 10.7873 11 (P3) n - 1
REM
REM Run started: Sat, 12 Sep 2020 03:08:49 +0100 in /lustre/scratch/uccabz1/launch_tmp/launcher_2020-09-11-21-41-27-480708
REM CASTEP 20.1 from code version af48c487+ pr-geom-scf-spinfix Tue Jun 2 15:39:59 2020 +0100
REM Functional Perdew Burke Ernzerhof Relativity Koelling-Harmon Dispersion off
REM Cut-off 340.0000 eV Grid scale 1.7500 Gmax 16.5316 1/A FBSC none
REM MP grid 3 3 3 Offset 0.000 0.000 0.000 No. kpts 8 Spacing 0.07
REM Total runtime: 16591.3 s
REM Overall efficiency: 95.4545 %
REM
REM
REM
REM compiler GCC version 4.9.2
REM options -cpp -iprefix /lustre/shared/ucl/apps/gcc/4.9.2/bin/../lib/gcc/x86_64-unknown-linux-gnu/4.9.2/ -mtune=corei7 -march=x86-64 -g -Og
REM COMMAND_LINE
REM seed -1040656502 1883171074 176576085 -418593108 1875995753 -590419147 1441282246 -73596633 -38289148 -1830320715 387634315 -621775615
REM
REM S 3|1.8|5|6|7|30:31:32(qc=5)
REM O 2|1.5|12|13|15|20:21(qc=5)
REM Li 1|1.3|8|9|10|10U:20(qc=5)
REM Fe 3|2.2|2.0|1.0|8|9|10|40:41:32(qc=5)
REM 
CELL 1.54180    6.15405    6.15405    5.63071   90.00000   90.00000  120.00000
LATT -1
SFAC Li O  S  Fe 
Li     1 -0.3333330000000  0.3333330000000  0.0827850000000 1.0   0.06
Li     1  0.3333330000000 -0.3333330000000 -0.6830950000000 1.0  -0.00
O      2 -0.0000000000000 -0.0000000000000 -0.0855240000000 1.0   0.26
S      3 -0.2506780000000 -0.3204520000000  0.4119390000000 1.0   0.02
S      3 -0.0697740000000  0.2506780000000  0.4119390000000 1.0   0.02
S      3  0.3204520000000  0.0697740000000  0.4119390000000 1.0   0.02
S      3  0.3333330000000 -0.3333330000000 -0.1344210000000 1.0   0.03
Fe     4 -0.2649080000000 -0.0668990000000 -0.3033960000000 1.0   2.69
Fe     4  0.1980090000000  0.2649080000000 -0.3033960000000 1.0   2.69
Fe     4  0.0668990000000 -0.1980090000000 -0.3033960000000 1.0   2.69
Fe     4 -0.3333330000000  0.3333330000000  0.5703250000000 1.0  -2.38
END
