TITL LFSO-Li2Fe4S3O2-200912-052943-040785 0.0112 231.814363 -5.63996725E+003 9.94405 10.5612 11 (Imm2) n - 1
REM
REM Run started: Sat, 12 Sep 2020 09:06:15 +0100 in /lustre/scratch/uccabz1/launch_tmp/launcher_2020-09-12-06-54-12-477083
REM CASTEP 20.1 from code version af48c487+ pr-geom-scf-spinfix Tue Jun 2 15:39:59 2020 +0100
REM Functional Perdew Burke Ernzerhof Relativity Koelling-Harmon Dispersion off
REM Cut-off 340.0000 eV Grid scale 1.7500 Gmax 16.5316 1/A FBSC none
REM MP grid 4 3 3 Offset 0.000 0.000 0.000 No. kpts 12 Spacing 0.07
REM Total runtime: 15079.3 s
REM Overall efficiency: 97.1818 %
REM
REM
REM
REM compiler GCC version 4.9.2
REM options -cpp -iprefix /lustre/shared/ucl/apps/gcc/4.9.2/bin/../lib/gcc/x86_64-unknown-linux-gnu/4.9.2/ -mtune=corei7 -march=x86-64 -g -Og
REM COMMAND_LINE
REM seed -496757189 -1328834377 -849691116 1448144102 232301614 402980753 -1535041830 255380791 779928783 -562994018 1045919019 675186328
REM
REM S 3|1.8|5|6|7|30:31:32(qc=5)
REM O 2|1.5|12|13|15|20:21(qc=5)
REM Li 1|1.3|8|9|10|10U:20(qc=5)
REM Fe 3|2.2|2.0|1.0|8|9|10|40:41:32(qc=5)
REM 
CELL 1.54180    5.01117    7.05946    7.85345  116.70841  108.60503   90.00000
LATT -1
SFAC Li O  S  Fe 
Li     1  0.1792680000000 -0.0244530000000  0.3585350000000 1.0  -0.04
Li     1 -0.1792680000000 -0.3829890000000 -0.3585370000000 1.0  -0.04
O      2  0.3128750000000  0.0476690000000  0.6257480000000 1.0   0.18
O      2 -0.3128750000000  0.4219200000000 -0.6257500000000 1.0   0.18
S      3  0.1331510000000 -0.4311980000000  0.2663000000000 1.0   0.25
S      3 -0.1331510000000  0.3025010000000 -0.2663020000000 1.0   0.25
S      3  0.5000000000000 -0.0207450000000  0.9999990000000 1.0   0.16
Fe     4  0.3332390000000  0.2884640000000  0.1828290000000 1.0   2.26
Fe     4 -0.3332390000000  0.1056340000000 -0.1828310000000 1.0   2.26
Fe     4  0.1504090000000  0.1056340000000 -0.1828310000000 1.0   2.26
Fe     4 -0.1504090000000  0.2884640000000  0.1828290000000 1.0   2.26
END
