TITL LFSO-Li2Fe2S3O-200913-064501-703cee 0.5778 459.691595 -1.04278342E+004 8.08491 9.27988 24 (C2/m) n - 1
REM
REM Run started: Tue, 15 Sep 2020 07:48:33 +0100 in /lustre/scratch/uccabz1/launch_tmp/launcher_2020-09-15-05-41-41-881004
REM CASTEP 20.1 from code version af48c487+ pr-geom-scf-spinfix Tue Jun 2 15:39:59 2020 +0100
REM Functional Perdew Burke Ernzerhof Relativity Koelling-Harmon Dispersion off
REM Cut-off 340.0000 eV Grid scale 1.7500 Gmax 16.5316 1/A FBSC none
REM MP grid 3 3 1 Offset 0.000 0.000 0.000 No. kpts 4 Spacing 0.07
REM Total runtime: 94209.1 s
REM Overall efficiency: 92.7778 %
REM
REM
REM
REM compiler GCC version 4.9.2
REM options -cpp -iprefix /lustre/shared/ucl/apps/gcc/4.9.2/bin/../lib/gcc/x86_64-unknown-linux-gnu/4.9.2/ -mtune=corei7 -march=x86-64 -g -Og
REM COMMAND_LINE
REM seed -837785090 2106741652 -472023758 -1184013964 -1571574945 -293014592 878805544 1914348652 -750675282 2029101098 1525842125 589463941
REM
REM S 3|1.8|5|6|7|30:31:32(qc=5)
REM O 2|1.5|12|13|15|20:21(qc=5)
REM Li 1|1.3|8|9|10|10U:20(qc=5)
REM Fe 3|2.2|2.0|1.0|8|9|10|40:41:32(qc=5)
REM 
CELL 1.54180    5.47335    5.47335   16.60467   86.51917   86.51917  111.63259
LATT -1
SFAC Li O  S  Fe 
Li     1 -0.7809540000000  0.5548700000000  0.4059770000000 1.0   0.02
Li     1  0.4451300000000 -0.2190460000000 -0.4059770000000 1.0   0.02
Li     1  0.7809540000000 -0.5548700000000 -0.4059770000000 1.0   0.02
Li     1 -0.4451300000000  0.2190460000000  0.4059770000000 1.0   0.02
Li     1 -0.1297240000000 -0.1297240000000  0.3154390000000 1.0  -0.01
Li     1  0.1297240000000  0.1297240000000 -0.3154390000000 1.0  -0.01
O      2  0.5165890000000 -0.4834110000000 -0.2115690000000 1.0   0.06
O      2 -0.5165890000000  0.4834110000000  0.2115690000000 1.0   0.06
O      2 -0.5000000000000  0.5000000000000  0.0000000000000 1.0   0.41
S      3 -0.0413050000000 -0.6049130000000  0.1233050000000 1.0   0.00
S      3  0.6049130000000  0.0413050000000 -0.1233050000000 1.0   0.00
S      3  0.0413050000000  0.6049130000000 -0.1233050000000 1.0   0.00
S      3 -0.6049130000000 -0.0413050000000  0.1233050000000 1.0   0.00
S      3 -0.0790050000000  0.3213750000000  0.3067860000000 1.0   0.04
S      3 -0.3213750000000  0.0790050000000 -0.3067860000000 1.0   0.04
S      3  0.0790050000000 -0.3213750000000 -0.3067860000000 1.0   0.04
S      3  0.3213750000000 -0.0790050000000  0.3067860000000 1.0   0.04
S      3  0.5000000000000 -0.5000000000000  0.5000000000000 1.0   0.00
Fe     4 -0.2399780000000  0.3875740000000 -0.2128240000000 1.0   0.22
Fe     4 -0.3875740000000  0.2399780000000  0.2128240000000 1.0   0.22
Fe     4  0.2399780000000 -0.3875740000000  0.2128240000000 1.0   0.22
Fe     4  0.3875740000000 -0.2399780000000 -0.2128240000000 1.0   0.22
Fe     4 -0.2722060000000 -0.2722060000000 -0.0750290000000 1.0   3.22
Fe     4  0.2722060000000  0.2722060000000  0.0750290000000 1.0   3.22
END
