TITL LFSO-Li4Fe3S2O3-201001-013128-03a984 -0.0688 1036.169224 -1.06185397E+004 6.96633 20.7543 24 (Imm2) n - 1
REM
REM Run started: Fri, 02 Oct 2020 08:21:04 +0100 in /lustre/scratch/uccabz1/launch_tmp/launcher_2020-10-01-00-31-26-592548
REM CASTEP 20.1 from code version af48c487+ pr-geom-scf-spinfix Tue Jun 2 15:39:59 2020 +0100
REM Functional Perdew Burke Ernzerhof Relativity Koelling-Harmon Dispersion off
REM Cut-off 340.0000 eV Grid scale 1.7500 Gmax 16.5316 1/A FBSC none
REM MP grid 3 2 2 Offset 0.000 0.000 0.000 No. kpts 5 Spacing 0.07
REM Total runtime: 112312 s
REM Overall efficiency: 70.3333 %
REM
REM
REM
REM compiler GCC version 4.9.2
REM options -cpp -iprefix /lustre/shared/ucl/apps/gcc/4.9.2/bin/../lib/gcc/x86_64-unknown-linux-gnu/4.9.2/ -mtune=corei7 -march=x86-64 -g -Og
REM COMMAND_LINE
REM seed 909060968 -364315117 -1072056422 -1723044831 533541049 1492987780 -1908195242 -1236525421 -1913352644 -218501995 1385662012 1351891943
REM
REM S 3|1.8|5|6|7|30:31:32(qc=5)
REM O 2|1.5|12|13|15|20:21(qc=5)
REM Li 1|1.3|8|9|10|10U:20(qc=5)
REM Fe 3|2.2|2.0|1.0|8|9|10|40:41:32(qc=5)
REM 
CELL 1.54180    6.04114   18.54291   18.54291   30.40420   80.62494   80.62494
LATT -1
SFAC Li O  S  Fe 
Li     1 -0.5756890000000  0.4929480000000 -0.1547230000000 1.0  -0.02
Li     1 -0.2374650000000 -0.4929480000000  0.1547230000000 1.0  -0.02
Li     1 -0.5756890000000 -0.1547230000000  0.4929480000000 1.0  -0.02
Li     1 -0.2374650000000  0.1547230000000 -0.4929480000000 1.0  -0.02
Li     1 -0.0823660000000  0.4081060000000 -0.0278110000000 1.0  -0.02
Li     1  0.2979300000000 -0.4081060000000  0.0278110000000 1.0  -0.02
Li     1 -0.0823660000000 -0.0278110000000  0.4081060000000 1.0  -0.02
Li     1  0.2979300000000  0.0278110000000 -0.4081060000000 1.0  -0.02
O      2  0.4995770000000  0.1591860000000 -0.5281430000000 1.0   0.12
O      2  0.1306190000000 -0.1591860000000  0.5281440000000 1.0   0.12
O      2  0.4995770000000 -0.5281430000000  0.1591860000000 1.0   0.12
O      2  0.1306190000000  0.5281440000000 -0.1591860000000 1.0   0.12
O      2 -0.4670600000000  0.2414310000000  0.2414310000000 1.0   0.09
O      2  0.0158010000000 -0.2414310000000 -0.2414310000000 1.0   0.09
S      3 -0.4034060000000  0.5488670000000 -0.1033650000000 1.0   0.06
S      3  0.0420950000000 -0.5488660000000  0.1033650000000 1.0   0.06
S      3 -0.4034060000000 -0.1033650000000  0.5488670000000 1.0   0.06
S      3  0.0420950000000  0.1033650000000 -0.5488660000000 1.0   0.06
Fe     4 -0.3302890000000  0.4090080000000  0.1209390000000 1.0   3.20
Fe     4  0.1996590000000 -0.4090080000000 -0.1209390000000 1.0   3.20
Fe     4 -0.3302890000000  0.1209390000000  0.4090080000000 1.0   3.20
Fe     4  0.1996590000000 -0.1209390000000 -0.4090080000000 1.0   3.20
Fe     4 -0.1056910000000 -0.2880930000000 -0.2880930000000 1.0  -3.28
Fe     4  0.3181230000000  0.2880930000000  0.2880930000000 1.0  -3.28
END
