TITL LFSO-Li2FeSO-200912-014353-459cc7 -0.3979 229.613632 -4.00748530E+003 8.00000 8.09969 10 (R3) n - 1
REM
REM Run started: Sat, 12 Sep 2020 11:08:02 +0100 in /lustre/scratch/uccabz1/launch_tmp/launcher_2020-09-12-09-59-48-734713
REM CASTEP 20.1 from code version af48c487+ pr-geom-scf-spinfix Tue Jun 2 15:39:59 2020 +0100
REM Functional Perdew Burke Ernzerhof Relativity Koelling-Harmon Dispersion off
REM Cut-off 340.0000 eV Grid scale 1.7500 Gmax 16.5316 1/A FBSC none
REM MP grid 3 3 3 Offset 0.000 0.000 0.000 No. kpts 6 Spacing 0.07
REM Total runtime: 32036.2 s
REM Overall efficiency: 96.4 %
REM
REM
REM
REM compiler GCC version 4.9.2
REM options -cpp -iprefix /lustre/shared/ucl/apps/gcc/4.9.2/bin/../lib/gcc/x86_64-unknown-linux-gnu/4.9.2/ -mtune=corei7 -march=x86-64 -g -Og
REM COMMAND_LINE
REM seed -1468309212 1919630731 -1878209421 -1234154690 160766182 1068128059 -1482555405 -1965367383 543830705 66666149 830511234 -451674043
REM
REM S 3|1.8|5|6|7|30:31:32(qc=5)
REM O 2|1.5|12|13|15|20:21(qc=5)
REM Li 1|1.3|8|9|10|10U:20(qc=5)
REM Fe 3|2.2|2.0|1.0|8|9|10|40:41:32(qc=5)
REM 
CELL 1.54180    6.16727    6.16727    7.82753   66.79963   66.79963   60.00000
LATT -1
SFAC Li O  S  Fe 
Li     1  0.0616530000000 -0.3776400000000  0.0882690000000 1.0  -0.04
Li     1 -0.3776400000000  0.2277160000000  0.0882690000000 1.0  -0.04
Li     1  0.2277160000000  0.0616530000000  0.0882690000000 1.0  -0.04
Li     1 -0.2020770000000 -0.2020770000000  0.6062300000000 1.0  -0.05
O      2  0.3253030000000  0.3253030000000 -0.9759110000000 1.0   0.21
O      2  0.4944530000000  0.4944530000000 -1.4833600000000 1.0   0.35
S      3 -0.0921080000000 -0.0921080000000  0.2763220000000 1.0   0.20
S      3 -0.3168580000000 -0.3168580000000  0.9505740000000 1.0   0.25
Fe     4  0.4100320000000  0.4100320000000 -1.2300980000000 1.0   3.55
Fe     4 -0.4207960000000 -0.4207960000000  1.2623880000000 1.0   3.62
END
