TITL LFSO-Li2FeSO-200912-021330-b3d602 0.0024 93.164177 -1.99925277E+003 3.99899 4.10644 5 (I-4m2) n - 1
REM
REM Run started: Sat, 12 Sep 2020 02:27:09 +0100 in /lustre/scratch/uccabz1/launch_tmp/launcher_2020-09-12-01-13-27-806272
REM CASTEP 20.1 from code version af48c487+ pr-geom-scf-spinfix Tue Jun 2 15:39:59 2020 +0100
REM Functional Perdew Burke Ernzerhof Relativity Koelling-Harmon Dispersion off
REM Cut-off 340.0000 eV Grid scale 1.7500 Gmax 16.5316 1/A FBSC none
REM MP grid 4 4 4 Offset 0.000 0.000 0.000 No. kpts 15 Spacing 0.07
REM Total runtime: 1182.52 s
REM Overall efficiency: 91.2 %
REM
REM
REM
REM compiler GCC version 4.9.2
REM options -cpp -iprefix /lustre/shared/ucl/apps/gcc/4.9.2/bin/../lib/gcc/x86_64-unknown-linux-gnu/4.9.2/ -mtune=corei7 -march=x86-64 -g -Og
REM COMMAND_LINE
REM seed 9458403 1375004559 -1546617330 1572115373 -373425043 -158872289 1904304026 275912129 -857518846 -1433641869 1815404006 1843402409
REM
REM S 3|1.8|5|6|7|30:31:32(qc=5)
REM O 2|1.5|12|13|15|20:21(qc=5)
REM Li 1|1.3|8|9|10|10U:20(qc=5)
REM Fe 3|2.2|2.0|1.0|8|9|10|40:41:32(qc=5)
REM 
CELL 1.54180    4.99646    4.99646    5.13897  119.08690  119.08690   90.00000
LATT -1
SFAC Li O  S  Fe 
Li     1  0.0318020000000 -0.4681980000000  0.0636030000000 1.0  -0.10
Li     1  0.4681980000000 -0.0318020000000 -0.0636030000000 1.0  -0.10
O      2  0.2500000000000 -0.2500000000000 -0.5000000000000 1.0   0.41
S      3 -0.2500000000000  0.2500000000000  0.5000000000000 1.0   0.17
Fe     4 -0.5000000000000 -0.5000000000000  0.0000000000000 1.0   3.61
END
