TITL LFSO-Li4Fe3SO4-200930-165711-372f47 -0.0446 367.847717 -1.08911772E+004 -16.1201 16.8994 24 (P3) n - 1
REM
REM Run started: Thu, 01 Oct 2020 02:40:06 +0100 in /lustre/scratch/uccabz1/launch_tmp/launcher_2020-09-30-15-57-10-242535
REM CASTEP 20.1 from code version af48c487+ pr-geom-scf-spinfix Tue Jun 2 15:39:59 2020 +0100
REM Functional Perdew Burke Ernzerhof Relativity Koelling-Harmon Dispersion off
REM Cut-off 340.0000 eV Grid scale 1.7500 Gmax 16.5316 1/A FBSC none
REM MP grid 3 3 2 Offset 0.000 0.000 0.000 No. kpts 5 Spacing 0.07
REM Total runtime: 37805.7 s
REM Overall efficiency: 66.3333 %
REM
REM
REM
REM compiler GCC version 4.9.2
REM options -cpp -iprefix /lustre/shared/ucl/apps/gcc/4.9.2/bin/../lib/gcc/x86_64-unknown-linux-gnu/4.9.2/ -mtune=corei7 -march=x86-64 -g -Og
REM COMMAND_LINE
REM seed 517390133 -1146412907 333686525 398929827 501356630 894346601 1680909272 1743149112 -1833367671 -1069920503 547805119 -1804667983
REM
REM S 3|1.8|5|6|7|30:31:32(qc=5)
REM O 2|1.5|12|13|15|20:21(qc=5)
REM Li 1|1.3|8|9|10|10U:20(qc=5)
REM Fe 3|2.2|2.0|1.0|8|9|10|40:41:32(qc=5)
REM 
CELL 1.54180    5.53022    5.53022   13.88840   90.00000   90.00000  120.00000
LATT -1
SFAC Li O  S  Fe 
Li     1 -0.3379990000000 -0.0443980000000 -0.1890330000000 1.0   0.03
Li     1  0.2936010000000  0.3379990000000 -0.1890330000000 1.0   0.03
Li     1  0.0443980000000 -0.2936010000000 -0.1890330000000 1.0   0.03
Li     1  0.1757410000000 -0.1424270000000  0.2147820000000 1.0   0.02
Li     1 -0.3181680000000 -0.1757410000000  0.2147820000000 1.0   0.02
Li     1  0.1424270000000  0.3181680000000  0.2147820000000 1.0   0.02
Li     1 -0.3333330000000  0.3333330000000 -0.1188590000000 1.0  -0.01
Li     1  0.0000000000000 -0.0000000000000  0.4087130000000 1.0  -0.00
O      2 -0.3285370000000 -0.3634980000000 -0.2130770000000 1.0  -0.22
O      2 -0.0349610000000  0.3285370000000 -0.2130770000000 1.0  -0.22
O      2  0.3634980000000  0.0349610000000 -0.2130770000000 1.0  -0.22
O      2  0.3400000000000  0.2799440000000  0.0019870000000 1.0  -0.07
O      2 -0.0600560000000 -0.3400000000000  0.0019870000000 1.0  -0.07
O      2 -0.2799440000000  0.0600560000000  0.0019870000000 1.0  -0.07
O      2  0.0000000000000 -0.0000000000000  0.2791030000000 1.0  -0.00
O      2  0.3333330000000 -0.3333330000000  0.1536410000000 1.0  -0.23
S      3 -0.3333330000000  0.3333330000000 -0.4666210000000 1.0  -0.01
S      3  0.0000000000000 -0.0000000000000 -0.4156830000000 1.0  -0.01
Fe     4  0.0800800000000 -0.5914590000000  0.0237830000000 1.0  -2.50
Fe     4  0.3284610000000 -0.0800800000000  0.0237830000000 1.0  -2.50
Fe     4  0.5914590000000 -0.3284610000000  0.0237830000000 1.0  -2.50
Fe     4 -0.0959690000000  0.3073150000000 -0.3400870000000 1.0  -2.54
Fe     4  0.4032840000000  0.0959690000000 -0.3400870000000 1.0  -2.54
Fe     4 -0.3073150000000 -0.4032840000000 -0.3400870000000 1.0  -2.54
END
