TITL LFSO-Li3Fe3S4O2-200929-225038-767d42 0.0618 184.473283 -5.28052978E+003 12.6258 12.6751 12 (R3) n - 1
REM
REM Run started: Wed, 30 Sep 2020 01:32:43 +0100 in /lustre/scratch/uccabz1/launch_tmp/launcher_2020-09-29-21-50-36-505389
REM CASTEP 20.1 from code version af48c487+ pr-geom-scf-spinfix Tue Jun 2 15:39:59 2020 +0100
REM Functional Perdew Burke Ernzerhof Relativity Koelling-Harmon Dispersion off
REM Cut-off 340.0000 eV Grid scale 1.7500 Gmax 16.5316 1/A FBSC none
REM MP grid 3 3 3 Offset 0.000 0.000 0.000 No. kpts 6 Spacing 0.07
REM Total runtime: 9802.37 s
REM Overall efficiency: 95.5556 %
REM
REM
REM
REM compiler GCC version 4.9.2
REM options -cpp -iprefix /lustre/shared/ucl/apps/gcc/4.9.2/bin/../lib/gcc/x86_64-unknown-linux-gnu/4.9.2/ -mtune=corei7 -march=x86-64 -g -Og
REM COMMAND_LINE
REM seed 244048175 -559988947 -41367598 -1038343991 -658439950 826449405 -1619905821 -1448722081 1208350114 1269782781 -2133385342 -455484560
REM
REM S 3|1.8|5|6|7|30:31:32(qc=5)
REM O 2|1.5|12|13|15|20:21(qc=5)
REM Li 1|1.3|8|9|10|10U:20(qc=5)
REM Fe 3|2.2|2.0|1.0|8|9|10|40:41:32(qc=5)
REM 
CELL 1.54180    7.10033    7.10033    7.10033   48.55180   48.55180   48.55180
LATT -1
SFAC Li O  S  Fe 
Li     1 -0.2229280000000  0.1183280000000  0.4485010000000 1.0   0.08
Li     1  0.4485010000000 -0.2229280000000  0.1183280000000 1.0   0.08
Li     1  0.1183280000000  0.4485010000000 -0.2229280000000 1.0   0.08
O      2 -0.1205990000000 -0.1205990000000 -0.1205990000000 1.0   0.38
O      2  0.2140380000000  0.2140380000000  0.2140380000000 1.0   0.38
S      3  0.3656610000000  0.0311710000000 -0.2916610000000 1.0   0.18
S      3 -0.2916610000000  0.3656610000000  0.0311710000000 1.0   0.18
S      3  0.0311710000000 -0.2916610000000  0.3656610000000 1.0   0.18
S      3  0.5373830000000  0.5373830000000  0.5373830000000 1.0   0.34
Fe     4 -0.4122390000000  0.2146450000000 -0.0411460000000 1.0   3.58
Fe     4 -0.0411460000000 -0.4122390000000  0.2146450000000 1.0   3.58
Fe     4  0.2146450000000 -0.0411460000000 -0.4122390000000 1.0   3.58
END
