TITL LFSO-Li2FeSO-200912-060627-e50818 -0.0219 80.040073 -2.00422574E+003 2.00835 2.21383 5 (C2) n - 1
REM
REM Run started: Sat, 12 Sep 2020 06:16:19 +0100 in /lustre/scratch/uccabz1/launch_tmp/launcher_2020-09-12-05-06-25-862757
REM CASTEP 20.1 from code version af48c487+ pr-geom-scf-spinfix Tue Jun 2 15:39:59 2020 +0100
REM Functional Perdew Burke Ernzerhof Relativity Koelling-Harmon Dispersion off
REM Cut-off 340.0000 eV Grid scale 1.7500 Gmax 16.5316 1/A FBSC none
REM MP grid 5 3 3 Offset 0.000 0.000 0.000 No. kpts 16 Spacing 0.07
REM Total runtime: 630.12 s
REM Overall efficiency: 82 %
REM
REM
REM
REM compiler GCC version 4.9.2
REM options -cpp -iprefix /lustre/shared/ucl/apps/gcc/4.9.2/bin/../lib/gcc/x86_64-unknown-linux-gnu/4.9.2/ -mtune=corei7 -march=x86-64 -g -Og
REM COMMAND_LINE
REM seed -835876033 -1085498742 -1174101852 -929726627 872650811 -1954181685 1788449473 1362826312 -1260235034 -1665398590 908955102 -1301943108
REM
REM S 3|1.8|5|6|7|30:31:32(qc=5)
REM O 2|1.5|12|13|15|20:21(qc=5)
REM Li 1|1.3|8|9|10|10U:20(qc=5)
REM Fe 3|2.2|2.0|1.0|8|9|10|40:41:32(qc=5)
REM 
CELL 1.54180    3.14990    5.11862    5.11862   79.81744   97.51151   97.51151
LATT -1
SFAC Li O  S  Fe 
Li     1  0.4082160000000  0.3220980000000  0.1701710000000 1.0  -0.07
Li     1 -0.4082160000000 -0.1701710000000 -0.3220980000000 1.0  -0.07
O      2  0.5000000000000  0.4697980000000 -0.4697980000000 1.0   0.20
S      3  0.5000000000000 -0.1197880000000  0.1197880000000 1.0   0.00
Fe     4 -0.0000000000000 -0.3671760000000  0.3671760000000 1.0   1.95
END
