TITL LFSO-Li2Fe2S2O-200913-122818-327774 -0.0289 263.328889 -6.34349400E+003 6.02743 14.0121 14 (R3) n - 1
REM
REM Run started: Sun, 13 Sep 2020 18:42:44 +0100 in /lustre/scratch/uccabz1/launch_tmp/launcher_2020-09-13-11-28-17-168000
REM CASTEP 20.1 from code version af48c487+ pr-geom-scf-spinfix Tue Jun 2 15:39:59 2020 +0100
REM Functional Perdew Burke Ernzerhof Relativity Koelling-Harmon Dispersion off
REM Cut-off 340.0000 eV Grid scale 1.7500 Gmax 16.5316 1/A FBSC none
REM MP grid 3 3 3 Offset 0.000 0.000 0.000 No. kpts 6 Spacing 0.07
REM Total runtime: 22746.4 s
REM Overall efficiency: 97.6667 %
REM
REM
REM
REM compiler GCC version 4.9.2
REM options -cpp -iprefix /lustre/shared/ucl/apps/gcc/4.9.2/bin/../lib/gcc/x86_64-unknown-linux-gnu/4.9.2/ -mtune=corei7 -march=x86-64 -g -Og
REM COMMAND_LINE
REM seed -467875087 1054561068 1473365165 1491539482 -36322462 -15152739 -1005705586 873067944 -1831657109 781468365 -719174192 835402857
REM
REM S 3|1.8|5|6|7|30:31:32(qc=5)
REM O 2|1.5|12|13|15|20:21(qc=5)
REM Li 1|1.3|8|9|10|10U:20(qc=5)
REM Fe 3|2.2|2.0|1.0|8|9|10|40:41:32(qc=5)
REM 
CELL 1.54180    6.47876    6.47876    6.47876   81.25343   81.25343   81.25343
LATT -1
SFAC Li O  S  Fe 
Li     1 -0.2420330000000 -0.1267310000000  0.5133700000000 1.0  -0.09
Li     1 -0.1267310000000  0.5133700000000 -0.2420330000000 1.0  -0.09
Li     1  0.5133700000000 -0.2420330000000 -0.1267310000000 1.0  -0.09
Li     1  0.1862520000000  0.1862520000000  0.1862520000000 1.0   0.05
O      2 -0.1767090000000 -0.1767090000000 -0.1767090000000 1.0   0.16
O      2  0.0449900000000  0.0449900000000  0.0449900000000 1.0   0.35
S      3  0.5524840000000  0.3629580000000  0.0697940000000 1.0  -0.06
S      3  0.3629580000000  0.0697940000000  0.5524840000000 1.0  -0.06
S      3  0.0697940000000  0.5524840000000  0.3629580000000 1.0  -0.06
S      3 -0.4315900000000 -0.4315900000000 -0.4315900000000 1.0  -0.27
Fe     4  0.0872950000000 -0.0260250000000 -0.2444510000000 1.0   3.15
Fe     4 -0.0260250000000 -0.2444510000000  0.0872950000000 1.0   3.15
Fe     4 -0.2444510000000  0.0872950000000 -0.0260250000000 1.0   3.15
Fe     4  0.4006030000000  0.4006030000000  0.4006030000000 1.0  -3.25
END
