TITL LFSO-Li4Fe3S2O3-200928-053856-2fe067 -0.0443 363.100532 -1.06241681E+004 -19.9994 20.4291 24 (P3) n - 1
REM
REM Run started: Tue, 29 Sep 2020 10:35:07 +0100 in /scratch/scratch/uccabz1/launch_tmp/launcher_2020-09-28-04-38-54-229360
REM CASTEP 19.11| from code version Version unavailable
REM Functional Perdew Burke Ernzerhof Relativity Koelling-Harmon Dispersion off
REM Cut-off 340.0000 eV Grid scale 1.7500 Gmax 16.5316 1/A FBSC none
REM MP grid 3 3 3 Offset 0.000 0.000 0.000 No. kpts 8 Spacing 0.07
REM Total runtime: 71642 s
REM Overall efficiency: 96.8182 %
REM
REM
REM
REM compiler GCC version 4.9.2
REM options -cpp -iprefix /scratch/UCL/applications/gcc/4.9.2/bin/../lib/gcc/x86_64-unknown-linux-gnu/4.9.2/ -mtune=corei7 -march=x86-64 -g -O2
REM COMMAND_LINE
REM seed 1698967793 1062309646 -15247842 370359635 -1761786595 1584396849 1326465637 497154292 -830885410 -873843038 518881033 1020663755
REM
REM S 3|1.8|5|6|7|30:31:32(qc=5)
REM O 2|1.5|12|13|15|20:21(qc=5)
REM Li 1|1.3|8|9|10|10U:20(qc=5)
REM Fe 3|2.2|2.0|1.0|8|9|10|40:41:32(qc=5)
REM 
CELL 1.54180    8.14834    8.14834    6.31477   90.00000   90.00000  120.00000
LATT -1
SFAC Li O  S  Fe 
Li     1 -0.2682750000000  0.1361410000000  0.6090820000000 1.0  -0.00
Li     1  0.4044160000000  0.2682750000000  0.6090820000000 1.0  -0.00
Li     1 -0.1361410000000 -0.4044160000000  0.6090820000000 1.0  -0.00
Li     1  0.4973420000000  0.0473790000000  0.1462830000000 1.0   0.01
Li     1 -0.4499630000000 -0.4973420000000  0.1462830000000 1.0   0.01
Li     1 -0.0473790000000  0.4499630000000  0.1462830000000 1.0   0.01
Li     1  0.3333330000000 -0.3333330000000  0.3536570000000 1.0   0.00
Li     1 -0.0000000000000  0.0000000000000 -0.2916880000000 1.0   0.01
O      2  0.2320150000000  0.2103320000000 -0.1756090000000 1.0  -0.19
O      2 -0.0216840000000 -0.2320150000000 -0.1756090000000 1.0  -0.19
O      2 -0.2103320000000  0.0216840000000 -0.1756090000000 1.0  -0.19
O      2  0.4269920000000 -0.0488220000000 -0.1362740000000 1.0  -0.23
O      2  0.5241850000000 -0.4269920000000 -0.1362740000000 1.0  -0.23
O      2  0.0488220000000 -0.5241850000000 -0.1362740000000 1.0  -0.23
S      3  0.1580380000000  0.3277870000000  0.2962720000000 1.0  -0.25
S      3  0.1697490000000 -0.1580380000000  0.2962720000000 1.0  -0.25
S      3 -0.3277870000000 -0.1697490000000  0.2962720000000 1.0  -0.25
S      3 -0.3333330000000  0.3333330000000  0.3622570000000 1.0  -0.06
Fe     4 -0.4576360000000 -0.1932140000000 -0.1173090000000 1.0  -2.70
Fe     4  0.2644230000000  0.4576360000000 -0.1173090000000 1.0  -2.70
Fe     4  0.1932140000000 -0.2644230000000 -0.1173090000000 1.0  -2.70
Fe     4 -0.1069610000000  0.0881790000000  0.1006840000000 1.0  -3.29
Fe     4  0.1951400000000  0.1069610000000  0.1006840000000 1.0  -3.29
Fe     4 -0.0881790000000 -0.1951400000000  0.1006840000000 1.0  -3.29
END
