TITL LFSO-Li3Fe3S4O2-201002-043527-514f58 0.0083 190.822218 -5.27926990E+003 4.02673 10.3839 12 (Imm2) n - 1
REM
REM Run started: Fri, 02 Oct 2020 09:28:38 +0100 in /lustre/scratch/uccabz1/launch_tmp/launcher_2020-10-02-03-35-25-411034
REM CASTEP 20.1 from code version af48c487+ pr-geom-scf-spinfix Tue Jun 2 15:39:59 2020 +0100
REM Functional Perdew Burke Ernzerhof Relativity Koelling-Harmon Dispersion off
REM Cut-off 340.0000 eV Grid scale 1.7500 Gmax 16.5316 1/A FBSC none
REM MP grid 3 3 3 Offset 0.000 0.000 0.000 No. kpts 8 Spacing 0.07
REM Total runtime: 17665.8 s
REM Overall efficiency: 92.8333 %
REM
REM
REM
REM compiler GCC version 4.9.2
REM options -cpp -iprefix /lustre/shared/ucl/apps/gcc/4.9.2/bin/../lib/gcc/x86_64-unknown-linux-gnu/4.9.2/ -mtune=corei7 -march=x86-64 -g -Og
REM COMMAND_LINE
REM seed 1769558695 1198930753 87195140 -1634638975 1168164442 938491565 -707168593 589380633 -1782178382 660251198 -81064043 -990781920
REM
REM S 3|1.8|5|6|7|30:31:32(qc=5)
REM O 2|1.5|12|13|15|20:21(qc=5)
REM Li 1|1.3|8|9|10|10U:20(qc=5)
REM Fe 3|2.2|2.0|1.0|8|9|10|40:41:32(qc=5)
REM 
CELL 1.54180    5.31953    6.58912    6.89689  118.53454  112.68391   90.00000
LATT -1
SFAC Li O  S  Fe 
Li     1 -0.0928480000000  0.2243660000000  0.0000000000000 1.0   0.04
Li     1 -0.0928480000000 -0.2243660000000  0.0000000000000 1.0   0.04
Li     1  0.1137690000000  0.5000000000000  0.0000000000000 1.0   0.06
O      2 -0.0558830000000 -0.3910120000000  0.2179760000000 1.0   0.16
O      2 -0.2738590000000  0.3910120000000 -0.2179760000000 1.0   0.16
S      3  0.1865930000000  0.1179120000000 -0.2900500000000 1.0   0.05
S      3  0.4766420000000 -0.1179120000000  0.2900500000000 1.0   0.05
S      3  0.1865930000000 -0.4079610000000 -0.2900500000000 1.0   0.05
S      3  0.4766420000000  0.4079610000000  0.2900500000000 1.0   0.05
Fe     4 -0.2368960000000  0.2497080000000  0.4994170000000 1.0   3.23
Fe     4  0.2636870000000 -0.2497080000000 -0.4994160000000 1.0   3.23
Fe     4  0.5551920000000  0.5000000000000  0.0000000000000 1.0  -3.10
END
