TITL LFSO-LiFe3S3O2-200909-145541-49f587 -0.0739 310.117914 -9153.925313207 0.127913E-01 0.114421 18 (C2) n - 1
REM
REM Run started: Thu, 10 Sep 2020 13:21:16 +0100 in /lustre/scratch/uccabz1/launch_tmp/launcher_2020-09-09-13-55-39-553227
REM CASTEP 20.1 from code version af48c487+ pr-geom-scf-spinfix Tue Jun 2 15:39:59 2020 +0100
REM Functional Perdew Burke Ernzerhof Relativity Koelling-Harmon Dispersion off
REM Cut-off 340.0000 eV Grid scale 1.7500 Gmax 16.5316 1/A FBSC none
REM MP grid 3 2 3 Offset 0.000 0.000 0.000 No. kpts 8 Spacing 0.07
REM Total runtime: 80722.7 s
REM Overall efficiency: 95.8182 %
REM
REM
REM
REM compiler GCC version 4.9.2
REM options -cpp -iprefix /lustre/shared/ucl/apps/gcc/4.9.2/bin/../lib/gcc/x86_64-unknown-linux-gnu/4.9.2/ -mtune=corei7 -march=x86-64 -g -Og
REM COMMAND_LINE
REM seed -1968064593 1827338738 -427882543 1025055183 1120075016 77490115 -355256788 1363192210 -1146059919 -531565470 744197052 955622053
REM
REM S 3|1.8|5|6|7|30:31:32(qc=5)
REM O 2|1.5|12|13|15|20:21(qc=5)
REM Li 1|1.3|8|9|10|10U:20(qc=5)
REM Fe 3|2.2|2.0|1.0|8|9|10|40:41:32(qc=5)
REM 
CELL 1.54180    5.68681    8.55432    6.81532   92.43960   97.35747   70.58584
LATT -1
SFAC Li O  S  Fe 
Li     1 -0.0052550000000  0.0537970000000  0.2086170000000 1.0  -0.01
Li     1 -0.0485420000000  0.0537970000000 -0.2086170000000 1.0  -0.01
O      2 -0.3244960000000  0.1394160000000  0.0533440000000 1.0  -0.11
O      2  0.1850800000000  0.1394160000000 -0.0533440000000 1.0  -0.11
O      2  0.1443380000000  0.3765610000000 -0.3128550000000 1.0  -0.01
O      2  0.4791010000000  0.3765610000000  0.3128550000000 1.0  -0.01
S      3 -0.0309080000000  0.3977400000000  0.2460210000000 1.0  -0.01
S      3 -0.3668320000000  0.3977400000000 -0.2460210000000 1.0  -0.01
S      3  0.1210290000000 -0.2458550000000  0.3374440000000 1.0   0.06
S      3  0.1248260000000 -0.2458550000000 -0.3374440000000 1.0   0.06
S      3  0.4569050000000  0.0028270000000  0.3501070000000 1.0   0.02
S      3 -0.4597310000000  0.0028270000000 -0.3501070000000 1.0   0.02
Fe     4 -0.0005590000000  0.3693800000000 -0.0823020000000 1.0  -2.11
Fe     4 -0.3688210000000  0.3693800000000  0.0823020000000 1.0  -2.11
Fe     4  0.2110980000000 -0.4662590000000  0.1813030000000 1.0  -1.03
Fe     4  0.2551610000000 -0.4662590000000 -0.1813030000000 1.0  -1.03
Fe     4  0.3534670000000  0.2246930000000  0.1678150000000 1.0  -0.69
Fe     4  0.4218400000000  0.2246930000000 -0.1678150000000 1.0  -0.69
END
