TITL LFSO-Li2Fe2SO3-200913-095852-ae97cc 0.0523 201.251320 -7.48941260E+003 15.9856 16.0214 16 (P3) n - 1
REM
REM Run started: Sun, 13 Sep 2020 18:50:21 +0100 in /lustre/scratch/uccabz1/launch_tmp/launcher_2020-09-13-08-58-50-727345
REM CASTEP 20.1 from code version af48c487+ pr-geom-scf-spinfix Tue Jun 2 15:39:59 2020 +0100
REM Functional Perdew Burke Ernzerhof Relativity Koelling-Harmon Dispersion off
REM Cut-off 340.0000 eV Grid scale 1.7500 Gmax 16.5316 1/A FBSC none
REM MP grid 3 3 3 Offset 0.000 0.000 0.000 No. kpts 8 Spacing 0.07
REM Total runtime: 34075.7 s
REM Overall efficiency: 94.1667 %
REM
REM
REM
REM compiler GCC version 4.9.2
REM options -cpp -iprefix /lustre/shared/ucl/apps/gcc/4.9.2/bin/../lib/gcc/x86_64-unknown-linux-gnu/4.9.2/ -mtune=corei7 -march=x86-64 -g -Og
REM COMMAND_LINE
REM seed -1239066732 396431071 -1718195306 -662448233 -390252822 755481837 -348076920 1394640415 -1447529070 1773318150 523677439 -1265989215
REM
REM S 3|1.8|5|6|7|30:31:32(qc=5)
REM O 2|1.5|12|13|15|20:21(qc=5)
REM Li 1|1.3|8|9|10|10U:20(qc=5)
REM Fe 3|2.2|2.0|1.0|8|9|10|40:41:32(qc=5)
REM 
CELL 1.54180    5.14563    6.72024    6.72024  120.00000   90.00000   90.00000
LATT -1
SFAC Li O  S  Fe 
Li     1  0.7028490000000  0.3532020000000  0.0017120000000 1.0   0.01
Li     1  0.7028490000000 -0.0017120000000  0.3514890000000 1.0   0.01
Li     1  0.7028490000000 -0.3514890000000 -0.3532020000000 1.0   0.01
Li     1 -0.2830700000000 -0.0000000000000  0.0000000000000 1.0   0.08
O      2 -0.0177560000000  0.2653950000000  0.1365840000000 1.0   0.40
O      2 -0.0177560000000 -0.1365840000000  0.1288110000000 1.0   0.40
O      2 -0.0177560000000 -0.1288110000000 -0.2653950000000 1.0   0.40
O      2 -0.5665620000000 -0.2671550000000 -0.1269370000000 1.0   0.39
O      2 -0.5665620000000  0.1269370000000 -0.1402180000000 1.0   0.39
O      2 -0.5665620000000  0.1402180000000  0.2671550000000 1.0   0.39
S      3 -0.0320250000000  0.3333330000000 -0.3333330000000 1.0   0.32
S      3  0.4313260000000 -0.3333330000000  0.3333330000000 1.0   0.33
Fe     4  0.2016190000000 -0.3909270000000 -0.0015290000000 1.0   3.81
Fe     4  0.2016190000000  0.0015290000000 -0.3893990000000 1.0   3.81
Fe     4  0.2016190000000  0.3893990000000  0.3909270000000 1.0   3.81
Fe     4  0.2145190000000 -0.0000000000000  0.0000000000000 1.0   1.41
END
