TITL LFSO-Li6FeS3O-200910-020110-1f8c88 -0.0026 160.393692 -3.41337121E+003 4.00000 4.07900 11 (Pmm2) n - 1
REM
REM Run started: Thu, 10 Sep 2020 03:47:04 +0100 in /lustre/scratch/uccabz1/launch_tmp/launcher_2020-09-10-01-01-09-138880
REM CASTEP 20.1 from code version af48c487+ pr-geom-scf-spinfix Tue Jun 2 15:39:59 2020 +0100
REM Functional Perdew Burke Ernzerhof Relativity Koelling-Harmon Dispersion off
REM Cut-off 340.0000 eV Grid scale 1.7500 Gmax 16.5316 1/A FBSC none
REM MP grid 4 4 2 Offset 0.000 0.000 0.000 No. kpts 8 Spacing 0.07
REM Total runtime: 6814.07 s
REM Overall efficiency: 95 %
REM
REM
REM
REM compiler GCC version 4.9.2
REM options -cpp -iprefix /lustre/shared/ucl/apps/gcc/4.9.2/bin/../lib/gcc/x86_64-unknown-linux-gnu/4.9.2/ -mtune=corei7 -march=x86-64 -g -Og
REM COMMAND_LINE
REM seed -759897890 -2124885700 293629061 -1254742634 1302852651 -1769159386 217274131 2143077352 -1205622033 1479574426 1248170439 -82889717
REM
REM S 3|1.8|5|6|7|30:31:32(qc=5)
REM O 2|1.5|12|13|15|20:21(qc=5)
REM Li 1|1.3|8|9|10|10U:20(qc=5)
REM Fe 3|2.2|2.0|1.0|8|9|10|40:41:32(qc=5)
REM 
CELL 1.54180    3.78628    4.12260   10.27550   90.00000   90.00000   90.00820
LATT -1
SFAC Li O  S  Fe 
Li     1 -0.5823720000000 -0.3379090000000 -0.3542330000000 1.0   0.02
Li     1 -0.5823720000000 -0.3379090000000  0.3542330000000 1.0   0.02
Li     1 -0.0821270000000  0.1835580000000  0.3654330000000 1.0   0.02
Li     1 -0.0821270000000  0.1835580000000 -0.3654330000000 1.0   0.02
Li     1 -0.0823740000000 -0.1437520000000 -0.1308220000000 1.0  -0.06
Li     1 -0.0823740000000 -0.1437520000000  0.1308220000000 1.0  -0.06
O      2 -0.0811580000000 -0.4595140000000  0.0000000000000 1.0   0.26
S      3 -0.5817930000000  0.1558660000000 -0.2214530000000 1.0   0.08
S      3 -0.5817930000000  0.1558660000000  0.2214530000000 1.0   0.08
S      3 -0.0822620000000 -0.3243150000000  0.5000000000000 1.0   0.01
Fe     4  0.4190770000000  0.3975460000000  0.0000000000000 1.0   3.62
END
