TITL LFSO-Li4Fe3SO4-200930-202548-6d4d94 1.0463 159.656240 -5.44428582E+003 7.26821 7.50178 12 (R3) n - 1
REM
REM Run started: Thu, 01 Oct 2020 02:08:36 +0100 in /lustre/scratch/uccabz1/launch_tmp/launcher_2020-09-30-19-25-46-488320
REM CASTEP 20.1 from code version af48c487+ pr-geom-scf-spinfix Tue Jun 2 15:39:59 2020 +0100
REM Functional Perdew Burke Ernzerhof Relativity Koelling-Harmon Dispersion off
REM Cut-off 340.0000 eV Grid scale 1.7500 Gmax 16.5316 1/A FBSC none
REM MP grid 4 4 4 Offset 0.000 0.000 0.000 No. kpts 12 Spacing 0.07
REM Total runtime: 28481.1 s
REM Overall efficiency: 96.0833 %
REM
REM
REM
REM compiler GCC version 4.9.2
REM options -cpp -iprefix /lustre/shared/ucl/apps/gcc/4.9.2/bin/../lib/gcc/x86_64-unknown-linux-gnu/4.9.2/ -mtune=corei7 -march=x86-64 -g -Og
REM COMMAND_LINE
REM seed 81204161 35372304 -1541430560 2036572170 1208873872 523825104 -990389944 1544500885 801065831 868080326 -1151271237 1499096752
REM
REM S 3|1.8|5|6|7|30:31:32(qc=5)
REM O 2|1.5|12|13|15|20:21(qc=5)
REM Li 1|1.3|8|9|10|10U:20(qc=5)
REM Fe 3|2.2|2.0|1.0|8|9|10|40:41:32(qc=5)
REM 
CELL 1.54180    7.43917    7.43917    7.43917   40.95328   40.95328   40.95328
LATT -1
SFAC Li O  S  Fe 
Li     1 -0.1235390000000  0.2280480000000 -0.4442520000000 1.0   0.02
Li     1 -0.4442520000000 -0.1235390000000  0.2280480000000 1.0   0.02
Li     1  0.2280480000000 -0.4442520000000 -0.1235390000000 1.0   0.02
Li     1  0.4441720000000  0.4441720000000  0.4441720000000 1.0  -0.15
O      2  0.0383850000000  0.2465230000000 -0.3578760000000 1.0   0.07
O      2 -0.3578760000000  0.0383850000000  0.2465230000000 1.0   0.07
O      2  0.2465230000000 -0.3578760000000  0.0383850000000 1.0   0.07
O      2 -0.4691910000000 -0.4691910000000 -0.4691910000000 1.0   0.03
S      3 -0.2326460000000 -0.2326460000000 -0.2326460000000 1.0   0.22
Fe     4 -0.0543630000000 -0.3287280000000  0.4037740000000 1.0   2.30
Fe     4  0.4037740000000 -0.0543630000000 -0.3287280000000 1.0   2.30
Fe     4 -0.3287280000000  0.4037740000000 -0.0543630000000 1.0   2.30
END
