TITL LFSO-Li5FeS3O-200910-104552-d65f10 -0.0026 191.009127 -3.21244456E+003 3.39692 3.60953 10 (C2) n - 1
REM
REM Run started: Thu, 10 Sep 2020 17:42:57 +0100 in /lustre/scratch/uccabz1/launch_tmp/launcher_2020-09-10-09-45-50-646347
REM CASTEP 20.1 from code version af48c487+ pr-geom-scf-spinfix Tue Jun 2 15:39:59 2020 +0100
REM Functional Perdew Burke Ernzerhof Relativity Koelling-Harmon Dispersion off
REM Cut-off 340.0000 eV Grid scale 1.7500 Gmax 16.5316 1/A FBSC none
REM MP grid 8 3 3 Offset 0.000 0.000 0.000 No. kpts 36 Spacing 0.07
REM Total runtime: 29641.2 s
REM Overall efficiency: 97.3077 %
REM
REM
REM
REM compiler GCC version 4.9.2
REM options -cpp -iprefix /lustre/shared/ucl/apps/gcc/4.9.2/bin/../lib/gcc/x86_64-unknown-linux-gnu/4.9.2/ -mtune=corei7 -march=x86-64 -g -Og
REM COMMAND_LINE
REM seed 1699556606 954209312 1297283529 -945838585 -364153985 938406744 -2007376395 1902212775 1460815428 440526767 1882850816 1006199307
REM
REM S 3|1.8|5|6|7|30:31:32(qc=5)
REM O 2|1.5|12|13|15|20:21(qc=5)
REM Li 1|1.3|8|9|10|10U:20(qc=5)
REM Fe 3|2.2|2.0|1.0|8|9|10|40:41:32(qc=5)
REM 
CELL 1.54180    3.77298   14.97973    8.66345  132.94107   59.33892  147.32394
LATT -1
SFAC Li O  S  Fe 
Li     1  0.8812840000000  0.3507020000000  0.2320280000000 1.0  -0.03
Li     1 -0.6492560000000 -0.1186740000000  0.2320280000000 1.0  -0.03
Li     1 -1.1538680000000  0.1872630000000 -0.2722480000000 1.0  -0.02
Li     1  0.8816200000000 -0.4595110000000 -0.2722480000000 1.0  -0.02
Li     1 -0.2924030000000 -0.2924030000000 -0.5848070000000 1.0   0.04
O      2  0.1614690000000  0.1614690000000 -0.6770620000000 1.0   0.17
S      3  0.6045020000000  0.5208410000000  0.5053770000000 1.0   0.10
S      3 -0.0991250000000 -0.0154640000000  0.5053770000000 1.0   0.10
S      3  0.5141530000000  0.5141530000000  0.0283060000000 1.0   0.19
Fe     4 -0.3040970000000  0.1959030000000  0.3918060000000 1.0   2.90
END
