TITL LFSO-Li2Fe4S4O-200911-204543-5d3bd4 1.6876 362.330716 -1.10111911E+004 -0.242953E-01 0.169188 22 (P2) n - 1
REM
REM Run started: Sun, 13 Sep 2020 16:48:06 +0100 in /lustre/scratch/uccabz1/launch_tmp/launcher_2020-09-12-09-29-24-011147
REM CASTEP 20.1 from code version af48c487+ pr-geom-scf-spinfix Tue Jun 2 15:39:59 2020 +0100
REM Functional Perdew Burke Ernzerhof Relativity Koelling-Harmon Dispersion off
REM Cut-off 340.0000 eV Grid scale 1.7500 Gmax 16.5316 1/A FBSC none
REM MP grid 3 3 2 Offset 0.000 0.000 0.000 No. kpts 6 Spacing 0.07
REM Total runtime: 167874 s
REM Overall efficiency: 98.75 %
REM
REM
REM
REM compiler GCC version 4.9.2
REM options -cpp -iprefix /lustre/shared/ucl/apps/gcc/4.9.2/bin/../lib/gcc/x86_64-unknown-linux-gnu/4.9.2/ -mtune=corei7 -march=x86-64 -g -Og
REM COMMAND_LINE
REM seed 1090825685 768143127 1747812342 -1579332795 45631591 -1460696493 381767189 1816818078 1938953913 -940502597 -1572097489 319862899
REM
REM S 3|1.8|5|6|7|30:31:32(qc=5)
REM O 2|1.5|12|13|15|20:21(qc=5)
REM Li 1|1.3|8|9|10|10U:20(qc=5)
REM Fe 3|2.2|2.0|1.0|8|9|10|40:41:32(qc=5)
REM 
CELL 1.54180    5.76700    6.01936   10.44172   90.00000   91.58756   90.00000
LATT -1
SFAC Li O  S  Fe 
Li     1  0.3254530000000  0.0120750000000  0.1838360000000 1.0  -0.03
Li     1 -0.3254530000000  0.0120750000000 -0.1838360000000 1.0  -0.03
Li     1 -0.0116760000000 -0.4412720000000 -0.1336400000000 1.0  -0.04
Li     1  0.0116760000000 -0.4412720000000  0.1336400000000 1.0  -0.04
O      2  0.1958370000000 -0.4039810000000 -0.4631740000000 1.0   0.00
O      2 -0.1958370000000 -0.4039810000000  0.4631740000000 1.0   0.00
S      3  0.2322930000000  0.1746140000000 -0.3970830000000 1.0   0.04
S      3 -0.2322930000000  0.1746140000000  0.3970830000000 1.0   0.04
S      3  0.2510160000000  0.3988160000000  0.2955860000000 1.0  -0.01
S      3 -0.2510160000000  0.3988160000000 -0.2955860000000 1.0  -0.01
S      3 -0.3225430000000 -0.2423260000000  0.2211680000000 1.0   0.00
S      3  0.3225430000000 -0.2423260000000 -0.2211680000000 1.0   0.00
S      3  0.2611340000000  0.3308810000000 -0.0168680000000 1.0   0.03
S      3 -0.2611340000000  0.3308810000000  0.0168680000000 1.0   0.03
Fe     4 -0.1328420000000  0.1114440000000 -0.4062770000000 1.0  -1.73
Fe     4  0.1328420000000  0.1114440000000  0.4062770000000 1.0  -1.73
Fe     4 -0.0712350000000 -0.3073760000000 -0.3840160000000 1.0   0.87
Fe     4  0.0712350000000 -0.3073760000000  0.3840160000000 1.0   0.87
Fe     4 -0.4786070000000 -0.5305340000000 -0.1404140000000 1.0   1.79
Fe     4  0.4786070000000 -0.5305340000000  0.1404140000000 1.0   1.79
Fe     4 -0.3474670000000 -0.1512560000000  0.4371260000000 1.0  -1.36
Fe     4  0.3474670000000 -0.1512560000000 -0.4371260000000 1.0  -1.36
END
