TITL LFSO-Li2Fe4S2O3-200912-075825-67957c 0.3435 395.303421 -5.76652184E+003 -5.32779 9.85662 11 (Pmm2) n - 1
REM
REM Run started: Mon, 14 Sep 2020 08:43:25 +0100 in /lustre/scratch/uccabz1/launch_tmp/launcher_2020-09-14-06-55-46-779789
REM CASTEP 20.1 from code version af48c487+ pr-geom-scf-spinfix Tue Jun 2 15:39:59 2020 +0100
REM Functional Perdew Burke Ernzerhof Relativity Koelling-Harmon Dispersion off
REM Cut-off 340.0000 eV Grid scale 1.7500 Gmax 16.5316 1/A FBSC none
REM MP grid 5 3 1 Offset 0.000 0.000 0.000 No. kpts 6 Spacing 0.07
REM Total runtime: 148616 s
REM Overall efficiency: 97.7692 %
REM
REM
REM
REM compiler GCC version 4.9.2
REM options -cpp -iprefix /lustre/shared/ucl/apps/gcc/4.9.2/bin/../lib/gcc/x86_64-unknown-linux-gnu/4.9.2/ -mtune=corei7 -march=x86-64 -g -Og
REM COMMAND_LINE
REM seed 1127724643 1079294768 451831692 54043098 -2026168173 -174690253 -1088059601 1026783757 -1948831152 2010034451 510946474 1743377417
REM
REM S 3|1.8|5|6|7|30:31:32(qc=5)
REM O 2|1.5|12|13|15|20:21(qc=5)
REM Li 1|1.3|8|9|10|10U:20(qc=5)
REM Fe 3|2.2|2.0|1.0|8|9|10|40:41:32(qc=5)
REM 
CELL 1.54180    3.35171    4.83241   24.40618   90.00000   90.00000   90.00000
LATT -1
SFAC Li O  S  Fe 
Li     1 -0.5882860000000 -0.5000000000000 -0.1342670000000 1.0   0.19
Li     1 -0.5882860000000 -0.5000000000000  0.1342670000000 1.0   0.19
O      2 -0.1445890000000  0.5000000000000 -0.2554230000000 1.0  -0.09
O      2 -0.1445890000000 -0.5000000000000  0.2554230000000 1.0  -0.09
O      2  0.3038090000000  0.0000000000000 -0.5000000000000 1.0   1.97
S      3  0.3624570000000  0.0000000000000  0.1651820000000 1.0  -0.04
S      3  0.3624570000000  0.0000000000000 -0.1651820000000 1.0  -0.04
Fe     4 -0.1368140000000 -0.2397950000000  0.2067390000000 1.0  -1.86
Fe     4 -0.1368140000000  0.2397950000000 -0.2067390000000 1.0  -1.86
Fe     4 -0.1368140000000  0.2397950000000  0.2067390000000 1.0  -1.86
Fe     4 -0.1368140000000 -0.2397950000000 -0.2067390000000 1.0  -1.86
END
