TITL LFSO-Li4Fe2S2O3-200911-092251-d9e375 0.0724 240.130214 -4.44700215E+003 6.85814 7.15367 11 (C222) n - 1
REM
REM Run started: Fri, 11 Sep 2020 13:21:47 +0100 in /lustre/scratch/uccabz1/launch_tmp/launcher_2020-09-11-12-18-11-565216
REM CASTEP 20.1 from code version af48c487+ pr-geom-scf-spinfix Tue Jun 2 15:39:59 2020 +0100
REM Functional Perdew Burke Ernzerhof Relativity Koelling-Harmon Dispersion off
REM Cut-off 340.0000 eV Grid scale 1.7500 Gmax 16.5316 1/A FBSC none
REM MP grid 6 3 2 Offset 0.000 0.000 0.000 No. kpts 9 Spacing 0.07
REM Total runtime: 13762.9 s
REM Overall efficiency: 93.75 %
REM
REM
REM
REM compiler GCC version 4.9.2
REM options -cpp -iprefix /lustre/shared/ucl/apps/gcc/4.9.2/bin/../lib/gcc/x86_64-unknown-linux-gnu/4.9.2/ -mtune=corei7 -march=x86-64 -g -Og
REM COMMAND_LINE
REM seed 759117884 -341941663 1295089164 475629192 240914028 -13841703 478340742 2102598561 -711859586 17001281 938143335 -1635268138
REM
REM S 3|1.8|5|6|7|30:31:32(qc=5)
REM O 2|1.5|12|13|15|20:21(qc=5)
REM Li 1|1.3|8|9|10|10U:20(qc=5)
REM Fe 3|2.2|2.0|1.0|8|9|10|40:41:32(qc=5)
REM 
CELL 1.54180    2.78065    6.71295   13.14942   90.00000   90.00000  101.95312
LATT -1
SFAC Li O  S  Fe 
Li     1  0.1165280000000 -0.2360320000000  0.2169930000000 1.0  -0.02
Li     1 -0.1165280000000  0.2360320000000  0.2169930000000 1.0  -0.02
Li     1  0.3525600000000  0.2360320000000 -0.2169930000000 1.0  -0.02
Li     1 -0.3525600000000 -0.2360320000000 -0.2169930000000 1.0  -0.02
O      2  0.0000000000000  0.0000000000000  0.2902870000000 1.0   0.19
O      2  0.0000000000000  0.0000000000000 -0.2902870000000 1.0   0.19
O      2  0.0000000000000  0.0000000000000  0.5000000000000 1.0   0.18
S      3 -0.5000000000000 -0.5000000000000  0.1564050000000 1.0   0.04
S      3  0.0000000000000  0.5000000000000 -0.1564050000000 1.0   0.04
Fe     4  0.5000000000000  0.0000000000000  0.3901570000000 1.0   3.15
Fe     4 -0.5000000000000  0.0000000000000 -0.3901570000000 1.0   3.15
END
