TITL LFSO-Li3FeS2O-200911-192044-997a71 0.0080 502.616160 -7.52429016E+003 10.9136 11.1847 21 (Imm2) n - 1
REM
REM Run started: Sat, 12 Sep 2020 03:48:54 +0100 in /lustre/scratch/uccabz1/launch_tmp/launcher_2020-09-11-22-11-40-867716
REM CASTEP 20.1 from code version af48c487+ pr-geom-scf-spinfix Tue Jun 2 15:39:59 2020 +0100
REM Functional Perdew Burke Ernzerhof Relativity Koelling-Harmon Dispersion off
REM Cut-off 340.0000 eV Grid scale 1.7500 Gmax 16.5316 1/A FBSC none
REM MP grid 3 2 2 Offset 0.000 0.000 0.000 No. kpts 5 Spacing 0.07
REM Total runtime: 28670.4 s
REM Overall efficiency: 73.8182 %
REM
REM
REM
REM compiler GCC version 4.9.2
REM options -cpp -iprefix /lustre/shared/ucl/apps/gcc/4.9.2/bin/../lib/gcc/x86_64-unknown-linux-gnu/4.9.2/ -mtune=corei7 -march=x86-64 -g -Og
REM COMMAND_LINE
REM seed 794047215 -1614506016 -831791026 334408349 1965719308 -110236870 -575500987 -439310335 -1277758267 786009581 561939627 -510636263
REM
REM S 3|1.8|5|6|7|30:31:32(qc=5)
REM O 2|1.5|12|13|15|20:21(qc=5)
REM Li 1|1.3|8|9|10|10U:20(qc=5)
REM Fe 3|2.2|2.0|1.0|8|9|10|40:41:32(qc=5)
REM 
CELL 1.54180    7.34755    9.10936    9.10936   89.09834   66.21555   66.21555
LATT -1
SFAC Li O  S  Fe 
Li     1  0.2760160000000 -0.3928430000000  0.2361440000000 1.0   0.01
Li     1 -0.1193180000000  0.2361440000000 -0.3928430000000 1.0   0.01
Li     1  0.2760160000000  0.2361440000000 -0.3928430000000 1.0   0.01
Li     1 -0.1193180000000 -0.3928430000000  0.2361440000000 1.0   0.01
Li     1  0.1153720000000 -0.6604510000000  0.0802350000000 1.0   0.00
Li     1 -0.5351560000000  0.0802350000000 -0.6604510000000 1.0   0.00
Li     1  0.1153720000000  0.0802350000000 -0.6604510000000 1.0   0.00
Li     1 -0.5351560000000 -0.6604510000000  0.0802350000000 1.0   0.00
Li     1  0.4169250000000 -0.4169250000000 -0.4169250000000 1.0  -0.01
O      2  0.1764440000000  0.1656410000000 -0.5185290000000 1.0   0.01
O      2  0.1764440000000 -0.5185290000000  0.1656410000000 1.0   0.01
O      2  0.2476820000000 -0.2476820000000 -0.2476820000000 1.0   0.38
S      3  0.2999510000000 -0.1460250000000  0.1202570000000 1.0   0.28
S      3 -0.2741830000000  0.1202570000000 -0.1460250000000 1.0   0.28
S      3  0.2999510000000  0.1202570000000 -0.1460250000000 1.0   0.28
S      3 -0.2741830000000 -0.1460250000000  0.1202570000000 1.0   0.28
S      3 -0.3757680000000  0.2909590000000  0.4605770000000 1.0   0.01
S      3 -0.3757680000000  0.4605770000000  0.2909590000000 1.0   0.01
Fe     4 -0.0525080000000 -0.1168610000000 -0.1168610000000 1.0   3.48
Fe     4 -0.7137710000000 -0.1168610000000 -0.1168610000000 1.0   3.48
Fe     4 -0.4867020000000 -0.0132980000000 -0.0132980000000 1.0   2.37
END
