TITL LFSO-Li6FeS3O-200910-025916-9f9680 0.0851 240.218525 -3.41189803E+003 -3.99123 4.04654 11 (R3) n - 1
REM
REM Run started: Thu, 10 Sep 2020 13:05:45 +0100 in /lustre/scratch/uccabz1/launch_tmp/launcher_2020-09-10-01-59-15-189652
REM CASTEP 20.1 from code version af48c487+ pr-geom-scf-spinfix Tue Jun 2 15:39:59 2020 +0100
REM Functional Perdew Burke Ernzerhof Relativity Koelling-Harmon Dispersion off
REM Cut-off 340.0000 eV Grid scale 1.7500 Gmax 16.5316 1/A FBSC none
REM MP grid 4 4 4 Offset 0.000 0.000 0.000 No. kpts 12 Spacing 0.07
REM Total runtime: 41785.8 s
REM Overall efficiency: 97.1667 %
REM
REM
REM
REM compiler GCC version 4.9.2
REM options -cpp -iprefix /lustre/shared/ucl/apps/gcc/4.9.2/bin/../lib/gcc/x86_64-unknown-linux-gnu/4.9.2/ -mtune=corei7 -march=x86-64 -g -Og
REM COMMAND_LINE
REM seed -47113075 -638934487 -996878254 119792012 1965412925 1710959026 1720361160 1889326408 601867798 -1953315807 -1167023197 -1538720085
REM
REM S 3|1.8|5|6|7|30:31:32(qc=5)
REM O 2|1.5|12|13|15|20:21(qc=5)
REM Li 1|1.3|8|9|10|10U:20(qc=5)
REM Fe 3|2.2|2.0|1.0|8|9|10|40:41:32(qc=5)
REM 
CELL 1.54180    8.52349    8.52349    8.52349  117.70619  117.70619  117.70619
LATT -1
SFAC Li O  S  Fe 
Li     1 -0.2886920000000 -0.1574820000000  0.2343890000000 1.0  -0.03
Li     1  0.2343890000000 -0.2886920000000 -0.1574820000000 1.0  -0.03
Li     1 -0.1574820000000  0.2343890000000 -0.2886920000000 1.0  -0.03
Li     1  0.0020690000000  0.0486010000000 -0.1886980000000 1.0   0.06
Li     1 -0.1886980000000  0.0020690000000  0.0486010000000 1.0   0.06
Li     1  0.0486010000000 -0.1886980000000  0.0020690000000 1.0   0.06
O      2 -0.0406530000000 -0.0406530000000 -0.0406530000000 1.0  -0.22
S      3 -0.3563700000000  0.2718790000000  0.4403380000000 1.0  -0.08
S      3  0.4403380000000 -0.3563700000000  0.2718790000000 1.0  -0.08
S      3  0.2718790000000  0.4403380000000 -0.3563700000000 1.0  -0.08
Fe     4 -0.5456350000000 -0.5456350000000 -0.5456350000000 1.0  -3.60
END
