TITL LFSO-Li4Fe2S3O-200911-004623-051a5b 0.0350 227.314480 -3.87324493E+003 7.99948 8.11554 10 (P-4) n - 1
REM
REM Run started: Fri, 11 Sep 2020 02:09:37 +0100 in /lustre/scratch/uccabz1/launch_tmp/launcher_2020-09-10-23-46-21-529274
REM CASTEP 20.1 from code version af48c487+ pr-geom-scf-spinfix Tue Jun 2 15:39:59 2020 +0100
REM Functional Perdew Burke Ernzerhof Relativity Koelling-Harmon Dispersion off
REM Cut-off 340.0000 eV Grid scale 1.7500 Gmax 16.5316 1/A FBSC none
REM MP grid 4 4 2 Offset 0.000 0.000 0.000 No. kpts 4 Spacing 0.07
REM Total runtime: 5089.51 s
REM Overall efficiency: 91 %
REM
REM
REM
REM compiler GCC version 4.9.2
REM options -cpp -iprefix /lustre/shared/ucl/apps/gcc/4.9.2/bin/../lib/gcc/x86_64-unknown-linux-gnu/4.9.2/ -mtune=corei7 -march=x86-64 -g -Og
REM COMMAND_LINE
REM seed 1304433138 -1168896270 2059437690 1675515077 -802621327 1292518837 421279963 2008689642 466565383 -422982336 -1331171934 -1731851611
REM
REM S 3|1.8|5|6|7|30:31:32(qc=5)
REM O 2|1.5|12|13|15|20:21(qc=5)
REM Li 1|1.3|8|9|10|10U:20(qc=5)
REM Fe 3|2.2|2.0|1.0|8|9|10|40:41:32(qc=5)
REM 
CELL 1.54180    4.21039    4.21039   12.82280   90.00000   90.00000   90.00000
LATT -1
SFAC Li O  S  Fe 
Li     1 -0.2712980000000  0.2666340000000  0.1354330000000 1.0  -0.00
Li     1  0.2712980000000 -0.2666340000000  0.1354330000000 1.0  -0.00
Li     1  0.2666340000000  0.2712980000000 -0.1354330000000 1.0  -0.00
Li     1 -0.2666340000000 -0.2712980000000 -0.1354330000000 1.0  -0.00
O      2  0.0000000000000  0.0000000000000  0.5000000000000 1.0   0.56
S      3  0.5000000000000  0.0000000000000  0.2733520000000 1.0   0.12
S      3  0.0000000000000 -0.5000000000000 -0.2733520000000 1.0   0.12
S      3  0.5000000000000 -0.5000000000000  0.0000000000000 1.0   0.01
Fe     4  0.0000000000000  0.0000000000000  0.3600800000000 1.0   3.61
Fe     4  0.0000000000000  0.0000000000000 -0.3600800000000 1.0   3.61
END
