TITL LFSO-Li4Fe2S2O3-200911-070053-3c0da9 0.0019 213.756831 -4.44559447E+003 6.00291 6.22347 11 (R3) n - 1
REM
REM Run started: Fri, 11 Sep 2020 08:55:39 +0100 in /lustre/scratch/uccabz1/launch_tmp/launcher_2020-09-11-06-00-51-367668
REM CASTEP 20.1 from code version af48c487+ pr-geom-scf-spinfix Tue Jun 2 15:39:59 2020 +0100
REM Functional Perdew Burke Ernzerhof Relativity Koelling-Harmon Dispersion off
REM Cut-off 340.0000 eV Grid scale 1.7500 Gmax 16.5316 1/A FBSC none
REM MP grid 3 3 3 Offset 0.000 0.000 0.000 No. kpts 6 Spacing 0.07
REM Total runtime: 8211.64 s
REM Overall efficiency: 96.875 %
REM
REM
REM
REM compiler GCC version 4.9.2
REM options -cpp -iprefix /lustre/shared/ucl/apps/gcc/4.9.2/bin/../lib/gcc/x86_64-unknown-linux-gnu/4.9.2/ -mtune=corei7 -march=x86-64 -g -Og
REM COMMAND_LINE
REM seed 1489763161 1261923111 761980279 -260450869 1517138216 -127553225 -230244479 710695084 502803330 1275877855 -353754152 230860847
REM
REM S 3|1.8|5|6|7|30:31:32(qc=5)
REM O 2|1.5|12|13|15|20:21(qc=5)
REM Li 1|1.3|8|9|10|10U:20(qc=5)
REM Fe 3|2.2|2.0|1.0|8|9|10|40:41:32(qc=5)
REM 
CELL 1.54180    6.00473    6.00473    6.00473   84.55714   84.55714   84.55714
LATT -1
SFAC Li O  S  Fe 
Li     1  0.1673060000000 -0.2261490000000 -0.4389220000000 1.0  -0.05
Li     1 -0.4389220000000  0.1673060000000 -0.2261490000000 1.0  -0.05
Li     1 -0.2261490000000 -0.4389220000000  0.1673060000000 1.0  -0.05
Li     1  0.2678100000000  0.2678100000000  0.2678100000000 1.0   0.06
O      2  0.0601790000000 -0.0235700000000  0.3399280000000 1.0   0.21
O      2  0.3399280000000  0.0601790000000 -0.0235700000000 1.0   0.21
O      2 -0.0235700000000  0.3399280000000  0.0601790000000 1.0   0.21
S      3 -0.1391890000000 -0.1391890000000 -0.1391890000000 1.0   0.19
S      3  0.4810030000000  0.4810030000000  0.4810030000000 1.0   0.14
Fe     4  0.0649470000000  0.0649470000000  0.0649470000000 1.0   1.81
Fe     4 -0.3291060000000 -0.3291060000000 -0.3291060000000 1.0   3.30
END
