TITL LFSO-Li5FeS3O-200910-103359-1d73f2 0.0640 178.758480 -3.21284277E+003 4.00177 4.05504 10 (P-6) n - 1
REM
REM Run started: Thu, 10 Sep 2020 11:43:44 +0100 in /lustre/scratch/uccabz1/launch_tmp/launcher_2020-09-10-09-33-57-643729
REM CASTEP 20.1 from code version af48c487+ pr-geom-scf-spinfix Tue Jun 2 15:39:59 2020 +0100
REM Functional Perdew Burke Ernzerhof Relativity Koelling-Harmon Dispersion off
REM Cut-off 340.0000 eV Grid scale 1.7500 Gmax 16.5316 1/A FBSC none
REM MP grid 3 3 4 Offset 0.000 0.000 0.000 No. kpts 10 Spacing 0.07
REM Total runtime: 4463.44 s
REM Overall efficiency: 84.25 %
REM
REM
REM
REM compiler GCC version 4.9.2
REM options -cpp -iprefix /lustre/shared/ucl/apps/gcc/4.9.2/bin/../lib/gcc/x86_64-unknown-linux-gnu/4.9.2/ -mtune=corei7 -march=x86-64 -g -Og
REM COMMAND_LINE
REM seed 1257936774 1352796997 -1992404423 1205737386 -2056736159 -296146802 -32673989 -1518675903 1137308803 -2089594982 536989643 1847008592
REM
REM S 3|1.8|5|6|7|30:31:32(qc=5)
REM O 2|1.5|12|13|15|20:21(qc=5)
REM Li 1|1.3|8|9|10|10U:20(qc=5)
REM Fe 3|2.2|2.0|1.0|8|9|10|40:41:32(qc=5)
REM 
CELL 1.54180    7.13282    7.13282    4.05708   90.00000   90.00000  120.00000
LATT -1
SFAC Li O  S  Fe 
Li     1 -0.1768020000000  0.1906020000000 -0.1533510000000 1.0  -0.04
Li     1  0.3674040000000  0.1768020000000 -0.1533510000000 1.0  -0.04
Li     1 -0.1906020000000 -0.3674040000000 -0.1533510000000 1.0  -0.04
Li     1  0.0000000000000 -0.0000000000000 -0.6483340000000 1.0   0.08
Li     1  0.3333330000000 -0.3333330000000  0.3477060000000 1.0   0.04
O      2 -0.3333330000000  0.3333330000000 -0.1547610000000 1.0   0.18
S      3  0.3268860000000  0.3227750000000  0.3447120000000 1.0   0.16
S      3 -0.0041110000000 -0.3268860000000  0.3447120000000 1.0   0.16
S      3 -0.3227750000000  0.0041110000000  0.3447120000000 1.0   0.16
Fe     4 -0.3333330000000  0.3333330000000  0.3482060000000 1.0   3.36
END
