TITL LFSO-Li3Fe3SO5-201002-010942-79cf44 -0.0542 389.894030 -1.13663637E+004 17.9987 18.5611 24 (P1) n - 1
REM
REM Run started: Fri, 02 Oct 2020 03:17:33 +0100 in /scratch/scratch/mmm0366/launch_tmp/launcher_2020-10-02-00-09-40-735149
REM CASTEP 19.11| from code version Version unavailable
REM Functional Perdew Burke Ernzerhof Relativity Koelling-Harmon Dispersion off
REM Cut-off 340.0000 eV Grid scale 1.7500 Gmax 16.5316 1/A FBSC none
REM MP grid 2 3 2 Offset 0.000 0.000 0.000 No. kpts 2 Spacing 0.07
REM Total runtime: 7792.31 s
REM Overall efficiency: 76.25 %
REM
REM
REM
REM compiler GCC version 4.9.2
REM options -cpp -iprefix /scratch/UCL/applications/gcc/4.9.2/bin/../lib/gcc/x86_64-unknown-linux-gnu/4.9.2/ -mtune=corei7 -march=x86-64 -g -O2
REM COMMAND_LINE
REM seed -1716123820 1981742023 -2050724942 -264350553 -463131969 -205722087 2078353213 -654965034 -1474415568 1632103148 -1873584623 146192986
REM
REM S 3|1.8|5|6|7|30:31:32(qc=5)
REM O 2|1.5|12|13|15|20:21(qc=5)
REM Li 1|1.3|8|9|10|10U:20(qc=5)
REM Fe 3|2.2|2.0|1.0|8|9|10|40:41:32(qc=5)
REM 
CELL 1.54180    7.45859    5.59340    9.34574   90.00000   90.00000   90.00000
LATT -1
SFAC Li O  S  Fe 
Li     1 -0.2284740000000 -0.5466940000000 -0.4322320000000 1.0  -0.00
Li     1  0.2284740000000  0.5466940000000  0.0677680000000 1.0  -0.00
Li     1 -0.2284740000000  0.5466940000000  0.0677680000000 1.0  -0.00
Li     1  0.2284740000000 -0.5466940000000 -0.4322320000000 1.0  -0.00
Li     1  0.5000000000000  0.2513350000000 -0.1936200000000 1.0   0.01
Li     1  0.5000000000000 -0.2513350000000  0.3063800000000 1.0   0.01
O      2 -0.3166160000000  0.1555870000000 -0.3739760000000 1.0   0.18
O      2  0.3166160000000 -0.1555870000000  0.1260240000000 1.0   0.18
O      2 -0.3166160000000 -0.1555870000000  0.1260240000000 1.0   0.18
O      2  0.3166160000000  0.1555870000000 -0.3739760000000 1.0   0.18
O      2  0.3286070000000  0.2523230000000 -0.0185550000000 1.0   0.22
O      2 -0.3286070000000 -0.2523230000000  0.4814450000000 1.0   0.22
O      2  0.3286070000000 -0.2523230000000  0.4814450000000 1.0   0.22
O      2 -0.3286070000000  0.2523230000000 -0.0185550000000 1.0   0.22
O      2  0.0000000000000  0.3306190000000  0.0966150000000 1.0   0.21
O      2  0.0000000000000 -0.3306190000000 -0.4033850000000 1.0   0.21
S      3  0.5000000000000 -0.2673940000000 -0.2215350000000 1.0   0.35
S      3  0.5000000000000  0.2673940000000  0.2784650000000 1.0   0.35
Fe     4  0.1589790000000 -0.0801920000000 -0.4146520000000 1.0   2.95
Fe     4 -0.1589790000000  0.0801920000000  0.0853480000000 1.0   2.95
Fe     4  0.1589790000000  0.0801920000000  0.0853480000000 1.0   2.95
Fe     4 -0.1589790000000 -0.0801920000000 -0.4146520000000 1.0   2.95
Fe     4 -0.5000000000000  0.0790630000000  0.0816410000000 1.0   1.73
Fe     4 -0.5000000000000 -0.0790630000000 -0.4183590000000 1.0   1.73
END
