TITL LFSO-Li5FeSO3-200910-061216-06aed3 0.4065 353.370881 -6.96243367E+003 -9.99638 10.1047 20 (R3) n - 1
REM
REM Run started: Thu, 10 Sep 2020 14:48:19 +0100 in /lustre/scratch/uccabz1/launch_tmp/launcher_2020-09-10-12-12-55-286608
REM CASTEP 20.1 from code version af48c487+ pr-geom-scf-spinfix Tue Jun 2 15:39:59 2020 +0100
REM Functional Perdew Burke Ernzerhof Relativity Koelling-Harmon Dispersion off
REM Cut-off 340.0000 eV Grid scale 1.7500 Gmax 16.5316 1/A FBSC none
REM MP grid 3 3 3 Offset 0.000 0.000 0.000 No. kpts 6 Spacing 0.07
REM Total runtime: 24973.4 s
REM Overall efficiency: 97.0769 %
REM
REM
REM
REM compiler GCC version 4.9.2
REM options -cpp -iprefix /lustre/shared/ucl/apps/gcc/4.9.2/bin/../lib/gcc/x86_64-unknown-linux-gnu/4.9.2/ -mtune=corei7 -march=x86-64 -g -Og
REM COMMAND_LINE
REM seed 629069686 -1371698327 -715343218 451793978 1835131639 457087163 -1510449243 1443973304 1331246117 -1223423511 894722383 2038214490
REM
REM S 3|1.8|5|6|7|30:31:32(qc=5)
REM O 2|1.5|12|13|15|20:21(qc=5)
REM Li 1|1.3|8|9|10|10U:20(qc=5)
REM Fe 3|2.2|2.0|1.0|8|9|10|40:41:32(qc=5)
REM 
CELL 1.54180    7.61180    7.61180    7.61180   66.16173   66.16173   66.16173
LATT -1
SFAC Li O  S  Fe 
Li     1  0.3092700000000  0.4722100000000 -0.0031100000000 1.0   0.01
Li     1 -0.0031100000000  0.3092700000000  0.4722100000000 1.0   0.01
Li     1  0.4722100000000 -0.0031100000000  0.3092700000000 1.0   0.01
Li     1  0.1516550000000 -0.1437460000000 -0.3233090000000 1.0  -0.07
Li     1 -0.3233090000000  0.1516550000000 -0.1437460000000 1.0  -0.07
Li     1 -0.1437460000000 -0.3233090000000  0.1516550000000 1.0  -0.07
Li     1 -0.1163610000000 -0.1199560000000  0.3627150000000 1.0   0.05
Li     1  0.3627150000000 -0.1163610000000 -0.1199560000000 1.0   0.05
Li     1 -0.1199560000000  0.3627150000000 -0.1163610000000 1.0   0.05
Li     1  0.5391340000000  0.5391340000000  0.5391340000000 1.0  -0.03
O      2 -0.2320540000000  0.3867010000000 -0.3145410000000 1.0  -0.30
O      2 -0.3145410000000 -0.2320540000000  0.3867010000000 1.0  -0.30
O      2  0.3867010000000 -0.3145410000000 -0.2320540000000 1.0  -0.30
O      2  0.4412310000000  0.1832440000000  0.0499390000000 1.0  -0.34
O      2  0.0499390000000  0.4412310000000  0.1832440000000 1.0  -0.34
O      2  0.1832440000000  0.0499390000000  0.4412310000000 1.0  -0.34
S      3  0.0404070000000  0.0404070000000  0.0404070000000 1.0  -0.13
S      3 -0.2081010000000 -0.2081010000000 -0.2081010000000 1.0  -0.24
Fe     4  0.1751100000000  0.1751100000000  0.1751100000000 1.0  -3.83
Fe     4 -0.3355760000000 -0.3355760000000 -0.3355760000000 1.0  -3.78
END
