TITL LFSO-Li3FeS2O-200911-180943-44e069 -0.0102 221.325145 -5.01916708E+003 9.73430 9.77583 14 (P21) n - 1
REM
REM Run started: Fri, 11 Sep 2020 22:59:44 +0100 in /lustre/scratch/uccabz1/launch_tmp/launcher_2020-09-11-17-09-41-530731
REM CASTEP 20.1 from code version af48c487+ pr-geom-scf-spinfix Tue Jun 2 15:39:59 2020 +0100
REM Functional Perdew Burke Ernzerhof Relativity Koelling-Harmon Dispersion off
REM Cut-off 340.0000 eV Grid scale 1.7500 Gmax 16.5316 1/A FBSC none
REM MP grid 6 3 2 Offset 0.000 0.000 0.000 No. kpts 9 Spacing 0.07
REM Total runtime: 18887.1 s
REM Overall efficiency: 97.6154 %
REM
REM
REM
REM compiler GCC version 4.9.2
REM options -cpp -iprefix /lustre/shared/ucl/apps/gcc/4.9.2/bin/../lib/gcc/x86_64-unknown-linux-gnu/4.9.2/ -mtune=corei7 -march=x86-64 -g -Og
REM COMMAND_LINE
REM seed -876433361 277346778 -1950718404 -854574547 -602310554 2085413429 46273993 -1410259699 -1271134336 -776801573 461216249 -1298800618
REM
REM S 3|1.8|5|6|7|30:31:32(qc=5)
REM O 2|1.5|12|13|15|20:21(qc=5)
REM Li 1|1.3|8|9|10|10U:20(qc=5)
REM Fe 3|2.2|2.0|1.0|8|9|10|40:41:32(qc=5)
REM 
CELL 1.54180    3.74577    7.83273   10.34388   90.00000   90.00000  133.17415
LATT -1
SFAC Li O  S  Fe 
Li     1 -0.2188640000000 -0.2128640000000 -0.1776110000000 1.0   0.02
Li     1  0.2188640000000  0.2128640000000  0.3223890000000 1.0   0.02
Li     1 -0.0548860000000 -0.5145210000000 -0.2777080000000 1.0  -0.07
Li     1  0.0548860000000  0.5145210000000  0.2222920000000 1.0  -0.07
Li     1  0.7143050000000  0.3185270000000 -0.0037640000000 1.0   0.06
Li     1 -0.7143050000000 -0.3185270000000  0.4962360000000 1.0   0.06
O      2  0.5255140000000  0.2033160000000  0.1760530000000 1.0   0.41
O      2 -0.5255140000000 -0.2033160000000 -0.3239470000000 1.0   0.41
S      3  0.2148960000000  0.3192910000000 -0.1648700000000 1.0   0.30
S      3 -0.2148960000000 -0.3192910000000  0.3351300000000 1.0   0.30
S      3 -0.4063800000000  0.2357170000000 -0.4692370000000 1.0   0.37
S      3  0.4063800000000 -0.2357170000000  0.0307630000000 1.0   0.37
Fe     4  0.0919450000000 -0.1097460000000  0.1477050000000 1.0   3.77
Fe     4 -0.0919450000000  0.1097460000000 -0.3522950000000 1.0   3.77
END
