TITL LFSO-Li2Fe2S3O-200913-050754-075a80 0.0062 256.436100 -6.95123172E+003 2.54311 3.25740 16 (P3) n - 1
REM
REM Run started: Sun, 13 Sep 2020 09:28:32 +0100 in /lustre/scratch/uccabz1/launch_tmp/launcher_2020-09-13-04-07-52-877402
REM CASTEP 20.1 from code version af48c487+ pr-geom-scf-spinfix Tue Jun 2 15:39:59 2020 +0100
REM Functional Perdew Burke Ernzerhof Relativity Koelling-Harmon Dispersion off
REM Cut-off 340.0000 eV Grid scale 1.7500 Gmax 16.5316 1/A FBSC none
REM MP grid 4 2 2 Offset 0.000 0.000 0.000 No. kpts 8 Spacing 0.07
REM Total runtime: 17253.1 s
REM Overall efficiency: 89 %
REM
REM
REM
REM compiler GCC version 4.9.2
REM options -cpp -iprefix /lustre/shared/ucl/apps/gcc/4.9.2/bin/../lib/gcc/x86_64-unknown-linux-gnu/4.9.2/ -mtune=corei7 -march=x86-64 -g -Og
REM COMMAND_LINE
REM seed -884371966 -786164994 2140404250 -1284004218 1580960398 1180543706 -747239080 -1411962271 1361288791 -1441248452 789042827 -765830345
REM
REM S 3|1.8|5|6|7|30:31:32(qc=5)
REM O 2|1.5|12|13|15|20:21(qc=5)
REM Li 1|1.3|8|9|10|10U:20(qc=5)
REM Fe 3|2.2|2.0|1.0|8|9|10|40:41:32(qc=5)
REM 
CELL 1.54180    4.02533    8.57677    8.57677  120.00000   90.00000   90.00000
LATT -1
SFAC Li O  S  Fe 
Li     1  0.4159030000000  0.4248850000000  0.1757470000000 1.0   0.02
Li     1  0.4159030000000 -0.1757470000000  0.2491380000000 1.0   0.02
Li     1  0.4159030000000 -0.2491380000000 -0.4248850000000 1.0   0.02
Li     1 -0.0921720000000 -0.3333330000000  0.3333330000000 1.0  -0.00
O      2 -0.5994890000000 -0.3333330000000  0.3333330000000 1.0  -0.01
O      2 -0.0745120000000  0.0000000000000 -0.0000000000000 1.0  -0.04
S      3 -0.4679790000000  0.3768880000000  0.4622180000000 1.0  -0.03
S      3 -0.4679790000000 -0.4622180000000 -0.0853310000000 1.0  -0.03
S      3 -0.4679790000000  0.0853310000000 -0.3768880000000 1.0  -0.03
S      3 -0.0754660000000  0.2506280000000  0.0336680000000 1.0   0.06
S      3 -0.0754660000000 -0.0336680000000  0.2169600000000 1.0   0.06
S      3 -0.0754660000000 -0.2169600000000 -0.2506280000000 1.0   0.06
Fe     4 -0.1818220000000  0.1776830000000  0.4761520000000 1.0   0.74
Fe     4 -0.1818220000000 -0.4761520000000 -0.2984690000000 1.0   0.74
Fe     4 -0.1818220000000  0.2984690000000 -0.1776830000000 1.0   0.74
Fe     4  0.3058670000000  0.3333330000000 -0.3333330000000 1.0   0.22
END
