TITL LFSO-Li2Fe4SO4-200912-010452-280f29 -0.0461 155.876552 -5.90650792E+003 13.9845 14.2521 11 (Fmmm) n - 1
REM
REM Run started: Sat, 12 Sep 2020 02:15:01 +0100 in /lustre/scratch/uccabz1/launch_tmp/launcher_2020-09-12-00-04-50-771617
REM CASTEP 20.1 from code version af48c487+ pr-geom-scf-spinfix Tue Jun 2 15:39:59 2020 +0100
REM Functional Perdew Burke Ernzerhof Relativity Koelling-Harmon Dispersion off
REM Cut-off 340.0000 eV Grid scale 1.7500 Gmax 16.5316 1/A FBSC none
REM MP grid 4 4 2 Offset 0.000 0.000 0.000 No. kpts 10 Spacing 0.07
REM Total runtime: 4278.71 s
REM Overall efficiency: 76 %
REM
REM
REM
REM compiler GCC version 4.9.2
REM options -cpp -iprefix /lustre/shared/ucl/apps/gcc/4.9.2/bin/../lib/gcc/x86_64-unknown-linux-gnu/4.9.2/ -mtune=corei7 -march=x86-64 -g -Og
REM COMMAND_LINE
REM seed -1013064117 -1783811 341394974 790687909 -1341355017 1803704798 -1779499609 -2089896487 -609546838 507848070 62990154 -110394534
REM
REM S 3|1.8|5|6|7|30:31:32(qc=5)
REM O 2|1.5|12|13|15|20:21(qc=5)
REM Li 1|1.3|8|9|10|10U:20(qc=5)
REM Fe 3|2.2|2.0|1.0|8|9|10|40:41:32(qc=5)
REM 
CELL 1.54180    3.96930    3.96930   10.45817  102.65616  102.65616   81.10891
LATT -1
SFAC Li O  S  Fe 
Li     1 -0.1639200000000 -0.1639200000000  0.0000000000000 1.0  -0.02
Li     1  0.1639200000000  0.1639200000000  0.0000000000000 1.0  -0.02
O      2 -0.0742520000000  0.4220620000000  0.3480920000000 1.0   0.27
O      2 -0.4220620000000  0.0742520000000 -0.3480920000000 1.0   0.27
O      2  0.0739700000000 -0.4223440000000 -0.3480920000000 1.0   0.27
O      2  0.4223440000000 -0.0739700000000  0.3480920000000 1.0   0.27
S      3  0.5000000000000  0.5000000000000  0.0000000000000 1.0   0.02
Fe     4  0.0654640000000  0.0651990000000 -0.3726250000000 1.0   3.23
Fe     4 -0.0651990000000 -0.0654640000000  0.3726250000000 1.0   3.23
Fe     4  0.4378240000000  0.4380890000000  0.3726250000000 1.0   3.23
Fe     4 -0.4380890000000 -0.4378240000000 -0.3726250000000 1.0   3.23
END
