TITL LFSO-Li3Fe3S5O-201002-142608-4dd6f0 0.0405 173.223424 -5.14729748E+003 3.90936 4.98424 12 (P1) n - 1
REM
REM Run started: Fri, 02 Oct 2020 16:33:12 +0100 in /scratch/scratch/mmm0366/launch_tmp/launcher_2020-10-02-13-26-07-135567
REM CASTEP 19.11| from code version Version unavailable
REM Functional Perdew Burke Ernzerhof Relativity Koelling-Harmon Dispersion off
REM Cut-off 340.0000 eV Grid scale 1.7500 Gmax 16.5316 1/A FBSC none
REM MP grid 4 4 4 Offset 0.000 0.000 0.000 No. kpts 12 Spacing 0.07
REM Total runtime: 7696.93 s
REM Overall efficiency: 94.375 %
REM
REM
REM
REM compiler GCC version 4.9.2
REM options -cpp -iprefix /scratch/UCL/applications/gcc/4.9.2/bin/../lib/gcc/x86_64-unknown-linux-gnu/4.9.2/ -mtune=corei7 -march=x86-64 -g -O2
REM COMMAND_LINE
REM seed -1577028869 -2105310574 1442925877 -1076241628 483592786 621989211 802388673 165612245 -1806157288 45315415 -1676948989 887578587
REM
REM S 3|1.8|5|6|7|30:31:32(qc=5)
REM O 2|1.5|12|13|15|20:21(qc=5)
REM Li 1|1.3|8|9|10|10U:20(qc=5)
REM Fe 3|2.2|2.0|1.0|8|9|10|40:41:32(qc=5)
REM 
CELL 1.54180    7.13727    7.13727    7.13727   46.26359   46.26359   46.26359
LATT -1
SFAC Li O  S  Fe 
Li     1  0.0067430000000  0.2782910000000 -0.4048160000000 1.0   0.02
Li     1 -0.4048160000000  0.0067430000000  0.2782910000000 1.0   0.02
Li     1  0.2782910000000 -0.4048160000000  0.0067430000000 1.0   0.02
O      2  0.2358340000000  0.2358340000000  0.2358340000000 1.0   0.04
S      3 -0.2262100000000  0.4116720000000 -0.0236890000000 1.0  -0.17
S      3 -0.0236890000000 -0.2262100000000  0.4116720000000 1.0  -0.17
S      3  0.4116720000000 -0.0236890000000 -0.2262100000000 1.0  -0.17
S      3 -0.4705600000000 -0.4705600000000 -0.4705600000000 1.0   0.01
S      3 -0.1273070000000 -0.1273070000000 -0.1273070000000 1.0  -0.04
Fe     4 -0.0818450000000  0.4111180000000  0.1504310000000 1.0   1.45
Fe     4  0.1504310000000 -0.0818450000000  0.4111180000000 1.0   1.45
Fe     4  0.4111180000000  0.1504310000000 -0.0818450000000 1.0   1.45
END
