TITL LFSO-Li4Fe2S2O3-200911-095116-1202df 0.0383 365.783909 -8.89622479E+003 13.9897 14.2392 22 (R3) n - 1
REM
REM Run started: Sat, 12 Sep 2020 00:11:36 +0100 in /lustre/scratch/uccabz1/launch_tmp/launcher_2020-09-11-08-51-14-389605
REM CASTEP 20.1 from code version af48c487+ pr-geom-scf-spinfix Tue Jun 2 15:39:59 2020 +0100
REM Functional Perdew Burke Ernzerhof Relativity Koelling-Harmon Dispersion off
REM Cut-off 340.0000 eV Grid scale 1.7500 Gmax 16.5316 1/A FBSC none
REM MP grid 3 3 3 Offset 0.000 0.000 0.000 No. kpts 6 Spacing 0.07
REM Total runtime: 51954.5 s
REM Overall efficiency: 98.5455 %
REM
REM
REM
REM compiler GCC version 4.9.2
REM options -cpp -iprefix /lustre/shared/ucl/apps/gcc/4.9.2/bin/../lib/gcc/x86_64-unknown-linux-gnu/4.9.2/ -mtune=corei7 -march=x86-64 -g -Og
REM COMMAND_LINE
REM seed -1993907369 729548496 1320212796 1930186397 207230482 -1068016687 -1472876906 295801701 1552867379 -1557140190 -179218665 707155443
REM
REM S 3|1.8|5|6|7|30:31:32(qc=5)
REM O 2|1.5|12|13|15|20:21(qc=5)
REM Li 1|1.3|8|9|10|10U:20(qc=5)
REM Fe 3|2.2|2.0|1.0|8|9|10|40:41:32(qc=5)
REM 
CELL 1.54180    8.04689    8.04689    8.04689   59.68248   59.68248   59.68248
LATT -1
SFAC Li O  S  Fe 
Li     1  0.4706870000000 -0.0196110000000  0.4607080000000 1.0   0.06
Li     1 -0.0196110000000  0.4607080000000  0.4706870000000 1.0   0.06
Li     1  0.4607080000000  0.4706870000000 -0.0196110000000 1.0   0.06
Li     1 -0.3725060000000  0.1306470000000 -0.1809330000000 1.0  -0.02
Li     1  0.1306470000000 -0.1809330000000 -0.3725060000000 1.0  -0.02
Li     1 -0.1809330000000 -0.3725060000000  0.1306470000000 1.0  -0.02
Li     1  0.4039580000000  0.4039580000000  0.4039580000000 1.0  -0.02
Li     1  0.0197900000000  0.0197900000000  0.0197900000000 1.0  -0.01
O      2  0.3296740000000 -0.0948160000000 -0.6024480000000 1.0   0.44
O      2 -0.0948160000000 -0.6024480000000  0.3296740000000 1.0   0.44
O      2 -0.6024480000000  0.3296740000000 -0.0948160000000 1.0   0.44
O      2 -0.0003740000000 -0.3919360000000 -0.1478010000000 1.0   0.14
O      2 -0.3919360000000 -0.1478010000000 -0.0003740000000 1.0   0.14
O      2 -0.1478010000000 -0.0003740000000 -0.3919360000000 1.0   0.14
S      3 -0.3020300000000  0.2083410000000  0.1999520000000 1.0   0.24
S      3  0.2083410000000  0.1999520000000 -0.3020300000000 1.0   0.24
S      3  0.1999520000000 -0.3020300000000  0.2083410000000 1.0   0.24
S      3 -0.3271880000000 -0.3271880000000 -0.3271880000000 1.0  -0.00
Fe     4  0.3372720000000 -0.1036550000000  0.1799200000000 1.0   3.44
Fe     4 -0.1036550000000  0.1799200000000  0.3372720000000 1.0   3.44
Fe     4  0.1799200000000  0.3372720000000 -0.1036550000000 1.0   3.44
Fe     4 -0.2215470000000 -0.2215470000000 -0.2215470000000 1.0   1.11
END
