TITL LFSO-Li3Fe3S2O4-200929-195301-c0c4ad -0.0083 357.719524 -1.11007646E+004 -18.0037 18.8483 24 (Pnc2) n - 1
REM
REM Run started: Wed, 30 Sep 2020 08:13:59 +0100 in /lustre/scratch/uccabz1/launch_tmp/launcher_2020-09-29-18-52-59-476249
REM CASTEP 20.1 from code version af48c487+ pr-geom-scf-spinfix Tue Jun 2 15:39:59 2020 +0100
REM Functional Perdew Burke Ernzerhof Relativity Koelling-Harmon Dispersion off
REM Cut-off 340.0000 eV Grid scale 1.7500 Gmax 16.5316 1/A FBSC none
REM MP grid 5 2 2 Offset 0.000 0.000 0.000 No. kpts 3 Spacing 0.07
REM Total runtime: 45670.8 s
REM Overall efficiency: 98.0769 %
REM
REM
REM
REM compiler GCC version 4.9.2
REM options -cpp -iprefix /lustre/shared/ucl/apps/gcc/4.9.2/bin/../lib/gcc/x86_64-unknown-linux-gnu/4.9.2/ -mtune=corei7 -march=x86-64 -g -Og
REM COMMAND_LINE
REM seed 562791044 -81330970 -1720415399 -530734755 -1024559456 -545145650 13093540 -105859072 1718291863 -1560378554 -374599952 221391094
REM
REM S 3|1.8|5|6|7|30:31:32(qc=5)
REM O 2|1.5|12|13|15|20:21(qc=5)
REM Li 1|1.3|8|9|10|10U:20(qc=5)
REM Fe 3|2.2|2.0|1.0|8|9|10|40:41:32(qc=5)
REM 
CELL 1.54180    3.03302    9.79474   12.04132   90.00000   90.00000   90.00000
LATT -1
SFAC Li O  S  Fe 
Li     1  0.1572430000000  0.3748230000000 -0.1321130000000 1.0  -0.01
Li     1 -0.1572430000000  0.3748230000000  0.1321130000000 1.0  -0.01
Li     1  0.1572430000000 -0.1251770000000 -0.3678870000000 1.0  -0.01
Li     1 -0.1572430000000 -0.1251770000000  0.3678870000000 1.0  -0.01
Li     1  0.5000000000000 -0.1227580000000  0.0000000000000 1.0  -0.01
Li     1 -0.5000000000000  0.3772420000000  0.5000000000000 1.0  -0.01
O      2  0.3428450000000 -0.2365920000000  0.3910520000000 1.0  -0.30
O      2 -0.3428450000000 -0.2365920000000 -0.3910520000000 1.0  -0.30
O      2  0.3428450000000  0.2634080000000  0.1089480000000 1.0  -0.30
O      2 -0.3428450000000  0.2634080000000 -0.1089480000000 1.0  -0.30
O      2 -0.3518200000000  0.5095730000000  0.3914830000000 1.0  -0.14
O      2  0.3518200000000  0.5095730000000 -0.3914830000000 1.0  -0.14
O      2 -0.3518200000000  0.0095730000000  0.1085170000000 1.0  -0.14
O      2  0.3518200000000  0.0095730000000 -0.1085170000000 1.0  -0.14
S      3 -0.3425170000000 -0.3847690000000  0.1649260000000 1.0   0.01
S      3  0.3425170000000 -0.3847690000000 -0.1649260000000 1.0   0.01
S      3 -0.3425170000000  0.1152310000000  0.3350740000000 1.0   0.01
S      3  0.3425170000000  0.1152310000000 -0.3350740000000 1.0   0.01
Fe     4 -0.1565100000000  0.0901500000000 -0.2004180000000 1.0  -2.77
Fe     4  0.1565100000000  0.0901500000000  0.2004180000000 1.0  -2.77
Fe     4 -0.1565100000000 -0.4098500000000 -0.2995820000000 1.0  -2.77
Fe     4  0.1565100000000 -0.4098500000000  0.2995820000000 1.0  -2.77
Fe     4  0.5000000000000  0.1438760000000  0.0000000000000 1.0  -2.57
Fe     4  0.5000000000000 -0.3561240000000  0.5000000000000 1.0  -2.57
END
