TITL LFSO-Li3Fe3S4O2-200930-030502-8a538d 0.0367 426.989444 -1.05638747E+004 17.9779 18.4463 24 (I41) n - 1
REM
REM Run started: Thu, 01 Oct 2020 08:39:17 +0100 in /lustre/scratch/uccabz1/launch_tmp/launcher_2020-09-30-12-31-20-030925
REM CASTEP 20.1 from code version af48c487+ pr-geom-scf-spinfix Tue Jun 2 15:39:59 2020 +0100
REM Functional Perdew Burke Ernzerhof Relativity Koelling-Harmon Dispersion off
REM Cut-off 340.0000 eV Grid scale 1.7500 Gmax 16.5316 1/A FBSC none
REM MP grid 3 3 4 Offset 0.000 0.000 0.000 No. kpts 12 Spacing 0.07
REM Total runtime: 85896.3 s
REM Overall efficiency: 98.5385 %
REM
REM
REM
REM compiler GCC version 4.9.2
REM options -cpp -iprefix /lustre/shared/ucl/apps/gcc/4.9.2/bin/../lib/gcc/x86_64-unknown-linux-gnu/4.9.2/ -mtune=corei7 -march=x86-64 -g -Og
REM COMMAND_LINE
REM seed 1947433575 1184348287 1777064508 2114000838 -459592502 -1453420195 -1591143982 374900270 1303421928 652228251 2052381224 678092360
REM
REM S 3|1.8|5|6|7|30:31:32(qc=5)
REM O 2|1.5|12|13|15|20:21(qc=5)
REM Li 1|1.3|8|9|10|10U:20(qc=5)
REM Fe 3|2.2|2.0|1.0|8|9|10|40:41:32(qc=5)
REM 
CELL 1.54180    9.92102    9.92102    8.24820  126.97059  126.97059   90.00000
LATT -1
SFAC Li O  S  Fe 
Li     1  0.2627750000000 -0.1259890000000  0.0011680000000 1.0   0.03
Li     1 -0.2616060000000  0.1271570000000  0.0011680000000 1.0   0.03
Li     1  0.3771570000000  0.0127750000000  0.5011680000000 1.0   0.03
Li     1  0.1240110000000  0.4883940000000  0.5011680000000 1.0   0.03
Li     1  0.2684940000000  0.2684940000000 -0.4630120000000 1.0  -0.03
Li     1 -0.4815060000000  0.0184940000000  0.0369880000000 1.0  -0.03
O      2  0.0098830000000  0.2056620000000  0.2066680000000 1.0   0.33
O      2  0.1967860000000  0.0010060000000  0.2066680000000 1.0   0.33
O      2  0.2510060000000 -0.2401170000000 -0.2933320000000 1.0   0.33
O      2 -0.5443380000000 -0.0532140000000 -0.2933320000000 1.0   0.33
S      3 -0.2659200000000 -0.3255220000000  0.6807320000000 1.0   0.03
S      3 -0.0533480000000  0.0062540000000  0.6807320000000 1.0   0.03
S      3  0.2562540000000  0.4840800000000  0.1807320000000 1.0   0.03
S      3 -0.0755220000000 -0.3033480000000  0.1807320000000 1.0   0.03
S      3  0.4252660000000 -0.3500410000000  0.0291200000000 1.0   0.15
S      3 -0.3961460000000  0.3791610000000  0.0291200000000 1.0   0.15
S      3 -0.3708390000000  0.1752660000000  0.5291200000000 1.0   0.15
S      3 -0.1000410000000  0.3538540000000  0.5291200000000 1.0   0.15
Fe     4 -0.2836670000000 -0.3199120000000  0.2169660000000 1.0   2.50
Fe     4 -0.4993670000000 -0.4631230000000  0.2169660000000 1.0   2.50
Fe     4 -0.2131230000000 -0.5336670000000 -0.2830340000000 1.0   2.50
Fe     4 -0.0699120000000  0.2506330000000 -0.2830340000000 1.0   2.50
Fe     4 -0.0265490000000 -0.0265490000000 -0.0530970000000 1.0   2.95
Fe     4  0.2234510000000 -0.2765490000000 -0.5530970000000 1.0   2.95
END
