TITL LFSO-Li3Fe3S2O4-200929-161027-a62bdf 0.0275 331.570514 -1.11001751E+004 -20.7522 21.3909 24 (P-1) n - 1
REM
REM Run started: Wed, 30 Sep 2020 20:26:45 +0100 in /lustre/scratch/uccabz1/launch_tmp/launcher_2020-09-29-15-10-25-207441
REM CASTEP 20.1 from code version af48c487+ pr-geom-scf-spinfix Tue Jun 2 15:39:59 2020 +0100
REM Functional Perdew Burke Ernzerhof Relativity Koelling-Harmon Dispersion off
REM Cut-off 340.0000 eV Grid scale 1.7500 Gmax 16.5316 1/A FBSC none
REM MP grid 5 2 2 Offset 0.000 0.000 0.000 No. kpts 10 Spacing 0.07
REM Total runtime: 78338.2 s
REM Overall efficiency: 73.1429 %
REM
REM
REM
REM compiler GCC version 4.9.2
REM options -cpp -iprefix /lustre/shared/ucl/apps/gcc/4.9.2/bin/../lib/gcc/x86_64-unknown-linux-gnu/4.9.2/ -mtune=corei7 -march=x86-64 -g -Og
REM COMMAND_LINE
REM seed 272078419 530935396 -1366822456 -412191051 1029101735 -1479004741 -3983698 621602940 -225092259 1319277376 939501282 619272461
REM
REM S 3|1.8|5|6|7|30:31:32(qc=5)
REM O 2|1.5|12|13|15|20:21(qc=5)
REM Li 1|1.3|8|9|10|10U:20(qc=5)
REM Fe 3|2.2|2.0|1.0|8|9|10|40:41:32(qc=5)
REM 
CELL 1.54180    3.35210    8.28358   12.04180   85.86396   88.66285   83.90233
LATT -1
SFAC Li O  S  Fe 
Li     1  0.3533480000000  0.3460570000000  0.1345330000000 1.0   0.01
Li     1 -0.3533480000000 -0.3460570000000 -0.1345330000000 1.0   0.01
Li     1 -0.0921620000000  0.2920310000000 -0.2915970000000 1.0   0.01
Li     1  0.0921620000000 -0.2920310000000  0.2915970000000 1.0   0.01
Li     1  0.4785530000000 -0.0207690000000  0.3809210000000 1.0  -0.05
Li     1 -0.4785530000000  0.0207690000000 -0.3809210000000 1.0  -0.05
O      2 -0.2699270000000  0.5156390000000 -0.3597980000000 1.0  -0.39
O      2  0.2699270000000 -0.5156390000000  0.3597980000000 1.0  -0.39
O      2 -0.3254480000000 -0.1110010000000  0.2338220000000 1.0  -0.22
O      2  0.3254480000000  0.1110010000000 -0.2338220000000 1.0  -0.22
O      2 -0.1713630000000  0.2753800000000  0.2197900000000 1.0  -0.37
O      2  0.1713630000000 -0.2753800000000 -0.2197900000000 1.0  -0.37
O      2  0.3343530000000  0.1274510000000  0.0667260000000 1.0  -0.25
O      2 -0.3343530000000 -0.1274510000000 -0.0667260000000 1.0  -0.25
S      3  0.0827640000000 -0.1609320000000 -0.4802660000000 1.0   0.03
S      3 -0.0827640000000  0.1609320000000  0.4802660000000 1.0   0.03
S      3 -0.2287180000000  0.3536470000000 -0.0925940000000 1.0  -0.07
S      3  0.2287180000000 -0.3536470000000  0.0925940000000 1.0  -0.07
Fe     4 -0.3081240000000 -0.1779540000000  0.0868930000000 1.0  -2.13
Fe     4  0.3081240000000  0.1779540000000 -0.0868930000000 1.0  -2.13
Fe     4  0.1402330000000 -0.0766800000000 -0.1502960000000 1.0  -3.34
Fe     4 -0.1402330000000  0.0766800000000  0.1502960000000 1.0  -3.34
Fe     4 -0.1985320000000  0.3764840000000  0.3561010000000 1.0  -3.60
Fe     4  0.1985320000000 -0.3764840000000 -0.3561010000000 1.0  -3.60
END
