TITL LFSO-Li3Fe3S5O-200928-210853-cd6c12 -0.1867 298.441523 -5.14388167E+003 5.00670 11.2971 12 (F222) n - 1
REM
REM Run started: Tue, 29 Sep 2020 09:49:19 +0100 in /lustre/scratch/uccabz1/launch_tmp/launcher_2020-09-29-08-17-48-403442
REM CASTEP 20.1 from code version af48c487+ pr-geom-scf-spinfix Tue Jun 2 15:39:59 2020 +0100
REM Functional Perdew Burke Ernzerhof Relativity Koelling-Harmon Dispersion off
REM Cut-off 340.0000 eV Grid scale 1.7500 Gmax 16.5316 1/A FBSC none
REM MP grid 3 3 3 Offset 0.000 0.000 0.000 No. kpts 8 Spacing 0.07
REM Total runtime: 30157.5 s
REM Overall efficiency: 97.9 %
REM
REM
REM
REM compiler GCC version 4.9.2
REM options -cpp -iprefix /lustre/shared/ucl/apps/gcc/4.9.2/bin/../lib/gcc/x86_64-unknown-linux-gnu/4.9.2/ -mtune=corei7 -march=x86-64 -g -Og
REM COMMAND_LINE
REM seed -1903587242 -583615481 -416799440 1387848387 -158024668 438268284 -968167145 854964405 -179528652 -2120635606 -621623128 -588534216
REM
REM S 3|1.8|5|6|7|30:31:32(qc=5)
REM O 2|1.5|12|13|15|20:21(qc=5)
REM Li 1|1.3|8|9|10|10U:20(qc=5)
REM Fe 3|2.2|2.0|1.0|8|9|10|40:41:32(qc=5)
REM 
CELL 1.54180    7.53110    7.53110    7.90537  124.54910  124.54910   79.01265
LATT -1
SFAC Li O  S  Fe 
Li     1 -0.2745350000000  0.7254650000000  0.4509310000000 1.0  -0.01
Li     1  0.2745350000000 -0.7254650000000 -0.4509310000000 1.0  -0.01
Li     1 -0.2500000000000  0.2500000000000  0.5000000000000 1.0  -0.07
O      2  0.2500000000000  0.7500000000000  0.5000000000000 1.0   1.59
S      3 -0.1528720000000  0.1243740000000 -0.2383920000000 1.0  -0.02
S      3  0.3627660000000  0.0855190000000  0.2383920000000 1.0  -0.02
S      3 -0.1243740000000  0.1528720000000  0.2383920000000 1.0  -0.02
S      3 -0.0855190000000 -0.3627660000000 -0.2383920000000 1.0  -0.02
S      3  0.5000000000000  0.5000000000000  0.0000000000000 1.0   0.24
Fe     4 -0.2694260000000  0.2694260000000  0.0000000000000 1.0   3.13
Fe     4  0.2694260000000 -0.2694260000000  0.0000000000000 1.0   3.13
Fe     4  0.0000000000000 -0.0000000000000  0.0000000000000 1.0  -2.93
END
