TITL LFSO-LiFe3S2O3-200909-174517-05d8fc 0.0381 324.544699 -9.42255866E+003 -12.1971 15.6281 18 (Cm) n - 1
REM
REM Run started: Thu, 10 Sep 2020 16:45:09 +0100 in /lustre/scratch/uccabz1/launch_tmp/launcher_2020-09-09-16-45-16-137879
REM CASTEP 20.1 from code version af48c487+ pr-geom-scf-spinfix Tue Jun 2 15:39:59 2020 +0100
REM Functional Perdew Burke Ernzerhof Relativity Koelling-Harmon Dispersion off
REM Cut-off 340.0000 eV Grid scale 1.7500 Gmax 16.5316 1/A FBSC none
REM MP grid 3 3 3 Offset 0.000 0.000 0.000 No. kpts 10 Spacing 0.07
REM Total runtime: 83223.7 s
REM Overall efficiency: 65.1 %
REM
REM
REM
REM compiler GCC version 4.9.2
REM options -cpp -iprefix /lustre/shared/ucl/apps/gcc/4.9.2/bin/../lib/gcc/x86_64-unknown-linux-gnu/4.9.2/ -mtune=corei7 -march=x86-64 -g -Og
REM COMMAND_LINE
REM seed -1749336619 1947201675 -355368238 1779968351 -415751896 1605063120 -1119560537 -1529884163 -177917102 1204649739 -56487862 -1116342011
REM
REM S 3|1.8|5|6|7|30:31:32(qc=5)
REM O 2|1.5|12|13|15|20:21(qc=5)
REM Li 1|1.3|8|9|10|10U:20(qc=5)
REM Fe 3|2.2|2.0|1.0|8|9|10|40:41:32(qc=5)
REM 
CELL 1.54180    8.10182    8.10182    9.21244   62.43883   62.43883  111.10195
LATT -1
SFAC Li O  S  Fe 
Li     1 -0.1473490000000 -0.4100180000000 -0.4887080000000 1.0   0.01
Li     1 -0.4100180000000 -0.1473490000000 -0.4887080000000 1.0   0.01
O      2  0.0405660000000  0.2980200000000 -0.4080310000000 1.0  -0.10
O      2  0.2980200000000  0.0405660000000 -0.4080310000000 1.0  -0.10
O      2 -0.2283030000000  0.1424280000000  0.4348170000000 1.0  -0.44
O      2  0.1424280000000 -0.2283030000000  0.4348170000000 1.0  -0.44
O      2  0.2782820000000 -0.3810670000000 -0.3746290000000 1.0  -0.30
O      2 -0.3810670000000  0.2782820000000 -0.3746290000000 1.0  -0.30
S      3  0.0024020000000 -0.2170760000000  0.1233890000000 1.0   0.04
S      3 -0.2170760000000  0.0024020000000  0.1233890000000 1.0   0.04
S      3  0.4320180000000 -0.2866540000000  0.0647250000000 1.0   0.02
S      3 -0.2866540000000  0.4320180000000  0.0647250000000 1.0   0.02
Fe     4  0.3439140000000 -0.3094980000000  0.3654620000000 1.0  -2.74
Fe     4 -0.3094980000000  0.3439140000000  0.3654620000000 1.0  -2.74
Fe     4 -0.2648850000000  0.1192420000000 -0.3391040000000 1.0  -3.33
Fe     4  0.1192420000000 -0.2648850000000 -0.3391040000000 1.0  -3.33
Fe     4 -0.0219670000000 -0.1768610000000 -0.1011440000000 1.0   0.74
Fe     4 -0.1768610000000 -0.0219670000000 -0.1011440000000 1.0   0.74
END
