TITL LFSO-Li6FeSO3-200909-224733-b8f2b5 -0.1028 204.666670 -3.67875479E+003 3.60844 3.84093 11 (C2) n - 1
REM
REM Run started: Thu, 10 Sep 2020 04:35:27 +0100 in /lustre/scratch/uccabz1/launch_tmp/launcher_2020-09-09-21-47-32-192801
REM CASTEP 20.1 from code version af48c487+ pr-geom-scf-spinfix Tue Jun 2 15:39:59 2020 +0100
REM Functional Perdew Burke Ernzerhof Relativity Koelling-Harmon Dispersion off
REM Cut-off 340.0000 eV Grid scale 1.7500 Gmax 16.5316 1/A FBSC none
REM MP grid 6 3 2 Offset 0.000 0.000 0.000 No. kpts 18 Spacing 0.07
REM Total runtime: 23651.4 s
REM Overall efficiency: 96.5 %
REM
REM
REM
REM compiler GCC version 4.9.2
REM options -cpp -iprefix /lustre/shared/ucl/apps/gcc/4.9.2/bin/../lib/gcc/x86_64-unknown-linux-gnu/4.9.2/ -mtune=corei7 -march=x86-64 -g -Og
REM COMMAND_LINE
REM seed 656195887 251658916 -1282590316 1084661994 1278768334 -1435824506 1401921732 -270128216 1284442681 -124441814 -1916510664 -1833149688
REM
REM S 3|1.8|5|6|7|30:31:32(qc=5)
REM O 2|1.5|12|13|15|20:21(qc=5)
REM Li 1|1.3|8|9|10|10U:20(qc=5)
REM Fe 3|2.2|2.0|1.0|8|9|10|40:41:32(qc=5)
REM 
CELL 1.54180    3.13805    7.15521   10.15085   94.91913  113.01948   77.33301
LATT -1
SFAC Li O  S  Fe 
Li     1 -0.5541500000000 -0.0694770000000  0.3851820000000 1.0   0.00
Li     1  0.6236270000000 -0.0694770000000 -0.3851820000000 1.0   0.00
Li     1 -0.3123320000000  0.0690820000000  0.2130230000000 1.0  -0.04
Li     1  0.2432500000000  0.0690820000000 -0.2130230000000 1.0  -0.04
Li     1  0.3240520000000 -0.3660100000000 -0.3865330000000 1.0  -0.01
Li     1  0.0419580000000 -0.3660100000000  0.3865330000000 1.0  -0.01
O      2 -0.1635440000000 -0.0632130000000 -0.1897470000000 1.0   0.16
O      2 -0.7732430000000 -0.0632130000000  0.1897470000000 1.0   0.16
O      2 -0.3504380000000 -0.2991250000000  0.5000000000000 1.0   0.00
S      3  0.9128110000000  0.1743770000000 -0.5000000000000 1.0   0.14
Fe     4  0.0544160000000 -0.1088320000000 -0.0000000000000 1.0   3.24
END
