TITL LFSO-Li2Fe3S2O2-200921-031851-fa2fcd -0.1009 229.098108 -4.46819343E+003 6.69720 7.00483 9 (P3) n - 1
REM
REM Run started: Mon, 21 Sep 2020 12:34:27 +0100 in /lustre/scratch/uccabz1/launch_tmp/launcher_2020-09-21-11-27-42-475538
REM CASTEP 20.1 from code version af48c487+ pr-geom-scf-spinfix Tue Jun 2 15:39:59 2020 +0100
REM Functional Perdew Burke Ernzerhof Relativity Koelling-Harmon Dispersion off
REM Cut-off 340.0000 eV Grid scale 1.7500 Gmax 16.5316 1/A FBSC none
REM MP grid 5 5 1 Offset 0.000 0.000 0.000 No. kpts 5 Spacing 0.07
REM Total runtime: 32229.3 s
REM Overall efficiency: 90.3333 %
REM
REM
REM
REM compiler GCC version 4.9.2
REM options -cpp -iprefix /lustre/shared/ucl/apps/gcc/4.9.2/bin/../lib/gcc/x86_64-unknown-linux-gnu/4.9.2/ -mtune=corei7 -march=x86-64 -g -Og
REM COMMAND_LINE
REM seed -939572677 -829894814 -48761101 -1551653595 1336215616 986127145 1410899323 1805487458 -1203109072 1435671403 -371444822 56426764
REM
REM S 3|1.8|5|6|7|30:31:32(qc=5)
REM O 2|1.5|12|13|15|20:21(qc=5)
REM Li 1|1.3|8|9|10|10U:20(qc=5)
REM Fe 3|2.2|2.0|1.0|8|9|10|40:41:32(qc=5)
REM 
CELL 1.54180    4.09909    4.09909   15.74405   90.00000   90.00000  120.00000
LATT -1
SFAC Li O  S  Fe 
Li     1 -0.0000000000000  0.0000000000000 -0.5340080000000 1.0  -0.05
Li     1  0.3333330000000 -0.3333330000000  0.3438230000000 1.0  -0.09
O      2 -0.3333330000000  0.3333330000000  0.3434850000000 1.0   1.21
O      2  0.3333330000000 -0.3333330000000 -0.5387500000000 1.0   0.94
S      3 -0.3333330000000  0.3333330000000 -0.2588040000000 1.0   0.08
S      3  0.3333330000000 -0.3333330000000 -0.0407870000000 1.0   0.07
Fe     4  0.3279150000000  0.0018450000000 -0.1486810000000 1.0   1.51
Fe     4 -0.0018450000000  0.3260700000000 -0.1486810000000 1.0   1.51
Fe     4 -0.3260700000000 -0.3279150000000 -0.1486810000000 1.0   1.51
END
