TITL LFSO-LiFeSO-200909-025602-7e4a30 -0.0258 403.873825 -9.02283479E+003 14.7632 16.1564 20 (C222) n - 1
REM
REM Run started: Wed, 09 Sep 2020 13:18:59 +0100 in /lustre/scratch/uccabz1/launch_tmp/launcher_2020-09-09-01-55-59-651150
REM CASTEP 20.1 from code version af48c487+ pr-geom-scf-spinfix Tue Jun 2 15:39:59 2020 +0100
REM Functional Perdew Burke Ernzerhof Relativity Koelling-Harmon Dispersion off
REM Cut-off 340.0000 eV Grid scale 1.7500 Gmax 16.5316 1/A FBSC none
REM MP grid 2 3 3 Offset 0.000 0.000 0.000 No. kpts 4 Spacing 0.07
REM Total runtime: 37516.9 s
REM Overall efficiency: 97.6 %
REM
REM
REM
REM compiler GCC version 4.9.2
REM options -cpp -iprefix /lustre/shared/ucl/apps/gcc/4.9.2/bin/../lib/gcc/x86_64-unknown-linux-gnu/4.9.2/ -mtune=corei7 -march=x86-64 -g -Og
REM COMMAND_LINE
REM seed 1332125623 -1253395372 -1437931108 -1175345469 160356249 -1567844372 -1940655840 556457722 -1689988202 -1852586852 -1111252371 498851817
REM
REM S 3|1.8|5|6|7|30:31:32(qc=5)
REM O 2|1.5|12|13|15|20:21(qc=5)
REM Li 1|1.3|8|9|10|10U:20(qc=5)
REM Fe 3|2.2|2.0|1.0|8|9|10|40:41:32(qc=5)
REM 
CELL 1.54180    7.97329    7.92601    7.92601  126.26365   90.00000   90.00000
LATT -1
SFAC Li O  S  Fe 
Li     1 -0.1732410000000 -0.3285130000000  0.0239350000000 1.0   0.01
Li     1 -0.1732410000000  0.3285130000000 -0.0239350000000 1.0   0.01
Li     1  0.1732410000000 -0.0239350000000  0.3285130000000 1.0   0.01
Li     1  0.1732410000000  0.0239350000000 -0.3285130000000 1.0   0.01
Li     1  0.5000000000000  0.0000000000000  0.0000000000000 1.0   0.14
O      2 -0.1916170000000 -0.3820250000000  0.2160210000000 1.0   0.34
O      2 -0.1916170000000  0.3820250000000 -0.2160210000000 1.0   0.34
O      2  0.1916170000000 -0.2160210000000  0.3820250000000 1.0   0.34
O      2  0.1916170000000  0.2160210000000 -0.3820250000000 1.0   0.34
O      2  0.0000000000000  0.5000000000000 -0.5000000000000 1.0   0.16
S      3 -0.3047090000000 -0.2486350000000 -0.2692350000000 1.0   0.14
S      3 -0.3047090000000  0.2486350000000  0.2692350000000 1.0   0.14
S      3  0.3047090000000  0.2692350000000  0.2486350000000 1.0   0.14
S      3  0.3047090000000 -0.2692350000000 -0.2486350000000 1.0   0.14
S      3  0.0000000000000  0.0000000000000  0.0000000000000 1.0  -0.54
Fe     4 -0.1982340000000 -0.4281350000000  0.4016540000000 1.0   2.59
Fe     4 -0.1982340000000  0.4281350000000 -0.4016540000000 1.0   2.59
Fe     4  0.1982340000000 -0.4016540000000  0.4281350000000 1.0   2.59
Fe     4  0.1982340000000  0.4016540000000 -0.4281350000000 1.0   2.59
Fe     4 -0.5000000000000  0.5000000000000  0.5000000000000 1.0   2.69
END
