TITL LFSO-Li4Fe2S3O2-200911-063623-cc8b88 0.2290 403.152087 -4.30896131E+003 7.99994 8.17991 11 (I-4m2) n - 1
REM
REM Run started: Fri, 11 Sep 2020 17:23:21 +0100 in /lustre/scratch/uccabz1/launch_tmp/launcher_2020-09-11-05-36-20-071357
REM CASTEP 20.1 from code version af48c487+ pr-geom-scf-spinfix Tue Jun 2 15:39:59 2020 +0100
REM Functional Perdew Burke Ernzerhof Relativity Koelling-Harmon Dispersion off
REM Cut-off 340.0000 eV Grid scale 1.7500 Gmax 16.5316 1/A FBSC none
REM MP grid 3 3 2 Offset 0.000 0.000 0.000 No. kpts 6 Spacing 0.07
REM Total runtime: 43140 s
REM Overall efficiency: 98.1538 %
REM
REM
REM
REM compiler GCC version 4.9.2
REM options -cpp -iprefix /lustre/shared/ucl/apps/gcc/4.9.2/bin/../lib/gcc/x86_64-unknown-linux-gnu/4.9.2/ -mtune=corei7 -march=x86-64 -g -Og
REM COMMAND_LINE
REM seed -836172500 1247532144 -1962819291 -1872410066 479230093 258245184 1645905961 561306593 1343799282 -2142237298 -720270960 1331040109
REM
REM S 3|1.8|5|6|7|30:31:32(qc=5)
REM O 2|1.5|12|13|15|20:21(qc=5)
REM Li 1|1.3|8|9|10|10U:20(qc=5)
REM Fe 3|2.2|2.0|1.0|8|9|10|40:41:32(qc=5)
REM 
CELL 1.54180    6.74445    6.74445   10.06454  109.57615  109.57615   90.00000
LATT -1
SFAC Li O  S  Fe 
Li     1  0.1843660000000 -0.1845760000000  0.0000090000000 1.0  -0.02
Li     1 -0.1843570000000  0.1845850000000  0.0000090000000 1.0  -0.02
Li     1 -0.1845850000000 -0.1843660000000 -0.0000090000000 1.0  -0.02
Li     1  0.1845760000000  0.1843570000000 -0.0000090000000 1.0  -0.02
O      2 -0.0429600000000 -0.0429600000000 -0.0859190000000 1.0   0.05
O      2  0.0429600000000  0.0429600000000  0.0859190000000 1.0   0.05
S      3  0.0063370000000  0.5063370000000  0.0126740000000 1.0   0.15
S      3 -0.5063370000000 -0.0063370000000 -0.0126740000000 1.0   0.15
S      3  0.2500000000000 -0.2500000000000  0.5000000000000 1.0   0.35
Fe     4  0.3719480000000 -0.1280520000000 -0.2561040000000 1.0   3.66
Fe     4  0.1280520000000 -0.3719480000000  0.2561040000000 1.0   3.66
END
