TITL LFSO-LiFe3S3O2-200909-141336-39da78 0.0618 290.079548 -9.15442479E+003 -17.4119 17.8094 18 (R3) n - 1
REM
REM Run started: Thu, 10 Sep 2020 06:46:21 +0100 in /lustre/scratch/uccabz1/launch_tmp/launcher_2020-09-09-13-13-33-865493
REM CASTEP 20.1 from code version af48c487+ pr-geom-scf-spinfix Tue Jun 2 15:39:59 2020 +0100
REM Functional Perdew Burke Ernzerhof Relativity Koelling-Harmon Dispersion off
REM Cut-off 340.0000 eV Grid scale 1.7500 Gmax 16.5316 1/A FBSC none
REM MP grid 3 3 3 Offset 0.000 0.000 0.000 No. kpts 6 Spacing 0.07
REM Total runtime: 59875.3 s
REM Overall efficiency: 97.9091 %
REM
REM
REM
REM compiler GCC version 4.9.2
REM options -cpp -iprefix /lustre/shared/ucl/apps/gcc/4.9.2/bin/../lib/gcc/x86_64-unknown-linux-gnu/4.9.2/ -mtune=corei7 -march=x86-64 -g -Og
REM COMMAND_LINE
REM seed 36776676 -1462509419 -1464325004 1699184386 1367046732 -1121626087 1943650961 64165621 -1776360642 551879016 209903988 95252465
REM
REM S 3|1.8|5|6|7|30:31:32(qc=5)
REM O 2|1.5|12|13|15|20:21(qc=5)
REM Li 1|1.3|8|9|10|10U:20(qc=5)
REM Fe 3|2.2|2.0|1.0|8|9|10|40:41:32(qc=5)
REM 
CELL 1.54180    6.68918    6.68918    6.68918   97.82853   97.82853   97.82853
LATT -1
SFAC Li O  S  Fe 
Li     1 -0.4042640000000 -0.4042640000000 -0.4042640000000 1.0   0.00
Li     1  0.2310050000000  0.2310050000000  0.2310050000000 1.0   0.06
O      2  0.0975840000000  0.4925280000000  0.1081430000000 1.0  -0.29
O      2  0.1081430000000  0.0975840000000  0.4925280000000 1.0  -0.29
O      2  0.4925280000000  0.1081430000000  0.0975840000000 1.0  -0.29
O      2 -0.2162160000000 -0.2162160000000 -0.2162160000000 1.0  -0.06
S      3  0.3887510000000 -0.1888240000000  0.3908170000000 1.0  -0.10
S      3  0.3908170000000  0.3887510000000 -0.1888240000000 1.0  -0.10
S      3 -0.1888240000000  0.3908170000000  0.3887510000000 1.0  -0.10
S      3 -0.2803760000000  0.1725610000000 -0.2614090000000 1.0  -0.09
S      3 -0.2614090000000 -0.2803760000000  0.1725610000000 1.0  -0.09
S      3  0.1725610000000 -0.2614090000000 -0.2803760000000 1.0  -0.09
Fe     4 -0.3550430000000 -0.0500040000000 -0.0423790000000 1.0  -2.65
Fe     4 -0.0423790000000 -0.3550430000000 -0.0500040000000 1.0  -2.65
Fe     4 -0.0500040000000 -0.0423790000000 -0.3550430000000 1.0  -2.65
Fe     4  0.3562190000000  0.0695210000000  0.6306920000000 1.0  -2.67
Fe     4  0.6306920000000  0.3562190000000  0.0695210000000 1.0  -2.67
Fe     4  0.0695210000000  0.6306920000000  0.3562190000000 1.0  -2.67
END
