TITL LFSO-LiFe3S4O-200909-113904-a90748 -0.0537 134.510580 -4.44032215E+003 -0.206399E-01 0.306455E-01 9 (P-4) n - 1
REM
REM Run started: Wed, 09 Sep 2020 12:39:15 +0100 in /lustre/scratch/uccabz1/launch_tmp/launcher_2020-09-09-10-39-02-536229
REM CASTEP 20.1 from code version af48c487+ pr-geom-scf-spinfix Tue Jun 2 15:39:59 2020 +0100
REM Functional Perdew Burke Ernzerhof Relativity Koelling-Harmon Dispersion off
REM Cut-off 340.0000 eV Grid scale 1.7500 Gmax 16.5316 1/A FBSC none
REM MP grid 3 3 3 Offset 0.000 0.000 0.000 No. kpts 6 Spacing 0.07
REM Total runtime: 3648.32 s
REM Overall efficiency: 90.6667 %
REM
REM
REM
REM compiler GCC version 4.9.2
REM options -cpp -iprefix /lustre/shared/ucl/apps/gcc/4.9.2/bin/../lib/gcc/x86_64-unknown-linux-gnu/4.9.2/ -mtune=corei7 -march=x86-64 -g -Og
REM COMMAND_LINE
REM seed 2021074733 1812947557 -964120816 152569916 24546408 -1433796973 1715885678 137264056 1557788711 -561045352 1585773546 686788459
REM
REM S 3|1.8|5|6|7|30:31:32(qc=5)
REM O 2|1.5|12|13|15|20:21(qc=5)
REM Li 1|1.3|8|9|10|10U:20(qc=5)
REM Fe 3|2.2|2.0|1.0|8|9|10|40:41:32(qc=5)
REM 
CELL 1.54180    4.89269    4.89269    5.61904   90.00000   90.00000   90.00000
LATT -1
SFAC Li O  S  Fe 
Li     1 -0.5000000000000  0.5000000000000  0.0000000000000 1.0   0.00
O      2  0.0000000000000  0.0000000000000  0.0000000000000 1.0  -0.00
S      3 -0.2638440000000 -0.2591410000000 -0.2676850000000 1.0  -0.00
S      3  0.2638440000000  0.2591410000000 -0.2676850000000 1.0  -0.00
S      3  0.2591410000000 -0.2638440000000  0.2676850000000 1.0  -0.00
S      3 -0.2591410000000  0.2638440000000  0.2676850000000 1.0  -0.00
Fe     4 -0.5000000000000  0.0000000000000  0.0128140000000 1.0  -0.00
Fe     4  0.0000000000000  0.5000000000000 -0.0128140000000 1.0  -0.00
Fe     4 -0.5000000000000  0.5000000000000 -0.5000000000000 1.0  -0.02
END
