TITL LFSO-Li3Fe3S5O-200929-005801-2c6d57 0.0045 250.933056 -5.14542906E+003 0.572902E-01 0.662865E-01 12 (C2) n - 1
REM
REM Run started: Tue, 29 Sep 2020 07:28:16 +0100 in /lustre/scratch/uccabz1/launch_tmp/launcher_2020-09-28-23-57-59-501678
REM CASTEP 20.1 from code version af48c487+ pr-geom-scf-spinfix Tue Jun 2 15:39:59 2020 +0100
REM Functional Perdew Burke Ernzerhof Relativity Koelling-Harmon Dispersion off
REM Cut-off 340.0000 eV Grid scale 1.7500 Gmax 16.5316 1/A FBSC none
REM MP grid 5 2 2 Offset 0.000 0.000 0.000 No. kpts 8 Spacing 0.07
REM Total runtime: 23712.1 s
REM Overall efficiency: 97.2222 %
REM
REM
REM
REM compiler GCC version 4.9.2
REM options -cpp -iprefix /lustre/shared/ucl/apps/gcc/4.9.2/bin/../lib/gcc/x86_64-unknown-linux-gnu/4.9.2/ -mtune=corei7 -march=x86-64 -g -Og
REM COMMAND_LINE
REM seed 785851002 181687298 -635876635 1005558283 333585434 1822414586 737490943 1553130472 2074118230 1333431185 1174323358 -1652207284
REM
REM S 3|1.8|5|6|7|30:31:32(qc=5)
REM O 2|1.5|12|13|15|20:21(qc=5)
REM Li 1|1.3|8|9|10|10U:20(qc=5)
REM Fe 3|2.2|2.0|1.0|8|9|10|40:41:32(qc=5)
REM 
CELL 1.54180    2.93237    9.94744    9.94744  119.82892   87.72960   87.72960
LATT -1
SFAC Li O  S  Fe 
Li     1  0.0302250000000 -0.4349070000000  0.1717590000000 1.0  -0.00
Li     1 -0.0302250000000 -0.1717590000000  0.4349070000000 1.0  -0.00
Li     1 -0.5000000000000 -0.4152770000000  0.4152770000000 1.0   0.00
O      2 -0.5000000000000 -0.2975090000000  0.2975090000000 1.0   0.00
S      3 -0.3810330000000 -0.1715280000000 -0.3372980000000 1.0   0.00
S      3  0.3810330000000  0.3372980000000  0.1715280000000 1.0   0.00
S      3  0.4412850000000  0.0453830000000  0.3011100000000 1.0  -0.00
S      3 -0.4412850000000 -0.3011100000000 -0.0453830000000 1.0  -0.00
S      3 -0.5000000000000  0.4334290000000 -0.4334290000000 1.0   0.00
Fe     4  0.4074670000000  0.2685120000000  0.3409470000000 1.0   0.01
Fe     4 -0.4074670000000 -0.3409470000000 -0.2685120000000 1.0   0.01
Fe     4  0.5000000000000 -0.1893580000000  0.1893580000000 1.0   0.02
END
