TITL LFSO-Li3Fe3S5O-200928-200411-cf147f -0.0168 459.610009 -1.02958188E+004 17.7313 18.3276 24 (Pnc2) n - 1
REM
REM Run started: Tue, 29 Sep 2020 04:50:36 +0100 in /lustre/scratch/uccabz1/launch_tmp/launcher_2020-09-28-19-04-08-894864
REM CASTEP 20.1 from code version af48c487+ pr-geom-scf-spinfix Tue Jun 2 15:39:59 2020 +0100
REM Functional Perdew Burke Ernzerhof Relativity Koelling-Harmon Dispersion off
REM Cut-off 340.0000 eV Grid scale 1.7500 Gmax 16.5316 1/A FBSC none
REM MP grid 2 3 2 Offset 0.000 0.000 0.000 No. kpts 2 Spacing 0.07
REM Total runtime: 32875.1 s
REM Overall efficiency: 86.7 %
REM
REM
REM
REM compiler GCC version 4.9.2
REM options -cpp -iprefix /lustre/shared/ucl/apps/gcc/4.9.2/bin/../lib/gcc/x86_64-unknown-linux-gnu/4.9.2/ -mtune=corei7 -march=x86-64 -g -Og
REM COMMAND_LINE
REM seed 1049958178 -733601481 28218241 -374502437 -1969360345 -493225378 -1450941868 2020123341 -1894803267 -2136447558 1243297016 -853325244
REM
REM S 3|1.8|5|6|7|30:31:32(qc=5)
REM O 2|1.5|12|13|15|20:21(qc=5)
REM Li 1|1.3|8|9|10|10U:20(qc=5)
REM Fe 3|2.2|2.0|1.0|8|9|10|40:41:32(qc=5)
REM 
CELL 1.54180    7.58632    6.93172    8.74012   90.00000   90.00000   90.00000
LATT -1
SFAC Li O  S  Fe 
Li     1  0.0851540000000  0.0659590000000  0.3225940000000 1.0   0.02
Li     1 -0.0851540000000  0.0659590000000 -0.3225940000000 1.0   0.02
Li     1  0.4148460000000  0.5659590000000  0.3225940000000 1.0   0.02
Li     1 -0.4148460000000  0.5659590000000 -0.3225940000000 1.0   0.02
Li     1 -0.0000000000000 -0.2576510000000  0.0000000000000 1.0   0.01
Li     1 -0.5000000000000  0.2423490000000  0.0000000000000 1.0   0.01
O      2 -0.0000000000000 -0.0377420000000  0.5000000000000 1.0   0.37
O      2 -0.5000000000000 -0.5377420000000  0.5000000000000 1.0   0.37
S      3  0.3788960000000  0.1986270000000  0.2522550000000 1.0   0.11
S      3 -0.3788960000000  0.1986270000000 -0.2522550000000 1.0   0.11
S      3  0.1211040000000 -0.3013730000000  0.2522550000000 1.0   0.11
S      3 -0.1211040000000 -0.3013730000000 -0.2522550000000 1.0   0.11
S      3 -0.3091490000000 -0.2776230000000  0.1808150000000 1.0   0.11
S      3  0.3091490000000 -0.2776230000000 -0.1808150000000 1.0   0.11
S      3 -0.1908510000000  0.2223770000000  0.1808150000000 1.0   0.11
S      3  0.1908510000000  0.2223770000000 -0.1808150000000 1.0   0.11
S      3 -0.5000000000000 -0.1102240000000  0.5000000000000 1.0   0.16
S      3 -0.0000000000000  0.3897760000000  0.5000000000000 1.0   0.16
Fe     4  0.3854610000000  0.0124620000000 -0.2819590000000 1.0   2.65
Fe     4 -0.3854610000000  0.0124620000000  0.2819590000000 1.0   2.65
Fe     4  0.1145390000000  0.5124620000000 -0.2819590000000 1.0   2.65
Fe     4 -0.1145390000000  0.5124620000000  0.2819590000000 1.0   2.65
Fe     4 -0.0000000000000 -0.2845860000000  0.5000000000000 1.0   2.52
Fe     4 -0.5000000000000  0.2154140000000  0.5000000000000 1.0   2.52
END
