TITL LFSO-Li5FeSO3-200910-042240-abc956 -0.5671 363.840931 -6.95885007E+003 8.72113 9.35811 20 (Cmm2) n - 1
REM
REM Run started: Thu, 10 Sep 2020 12:47:43 +0100 in /lustre/scratch/uccabz1/launch_tmp/launcher_2020-09-10-03-22-38-742701
REM CASTEP 20.1 from code version af48c487+ pr-geom-scf-spinfix Tue Jun 2 15:39:59 2020 +0100
REM Functional Perdew Burke Ernzerhof Relativity Koelling-Harmon Dispersion off
REM Cut-off 340.0000 eV Grid scale 1.7500 Gmax 16.5316 1/A FBSC none
REM MP grid 3 3 2 Offset 0.000 0.000 0.000 No. kpts 6 Spacing 0.07
REM Total runtime: 34822.2 s
REM Overall efficiency: 97.9167 %
REM
REM
REM
REM compiler GCC version 4.9.2
REM options -cpp -iprefix /lustre/shared/ucl/apps/gcc/4.9.2/bin/../lib/gcc/x86_64-unknown-linux-gnu/4.9.2/ -mtune=corei7 -march=x86-64 -g -Og
REM COMMAND_LINE
REM seed -181582509 609383877 -1272093078 -1529701478 266219506 2007413416 2043270761 -1718141279 -573470331 1298440320 -497440288 -1656037483
REM
REM S 3|1.8|5|6|7|30:31:32(qc=5)
REM O 2|1.5|12|13|15|20:21(qc=5)
REM Li 1|1.3|8|9|10|10U:20(qc=5)
REM Fe 3|2.2|2.0|1.0|8|9|10|40:41:32(qc=5)
REM 
CELL 1.54180    6.58701    5.51327   10.54622   90.00000  108.19739   90.00000
LATT -1
SFAC Li O  S  Fe 
Li     1 -0.3262840000000 -0.4689050000000 -0.2715740000000 1.0   0.01
Li     1  0.3262840000000 -0.4689050000000  0.2715740000000 1.0   0.01
Li     1 -0.0547100000000 -0.4689050000000  0.2715740000000 1.0   0.01
Li     1  0.0547100000000 -0.4689050000000 -0.2715740000000 1.0   0.01
Li     1 -0.0393430000000  0.0971590000000  0.3301400000000 1.0  -0.03
Li     1  0.0393430000000  0.0971590000000 -0.3301400000000 1.0  -0.03
Li     1 -0.3694830000000  0.0971590000000 -0.3301400000000 1.0  -0.03
Li     1  0.3694830000000  0.0971590000000  0.3301400000000 1.0  -0.03
Li     1  0.4190990000000 -0.1647830000000 -0.1618030000000 1.0   0.03
Li     1 -0.4190990000000 -0.1647830000000  0.1618030000000 1.0   0.03
O      2 -0.3360600000000 -0.1669490000000 -0.1981510000000 1.0   0.25
O      2  0.3360600000000 -0.1669490000000  0.1981510000000 1.0   0.25
O      2 -0.1379100000000 -0.1669490000000  0.1981510000000 1.0   0.25
O      2  0.1379100000000 -0.1669490000000 -0.1981510000000 1.0   0.25
O      2 -0.1083330000000  0.2762000000000 -0.2166660000000 1.0   0.31
O      2  0.1083330000000  0.2762000000000  0.2166660000000 1.0   0.31
S      3  0.0000000000000  0.3774890000000 -0.5000000000000 1.0  -0.12
S      3 -0.5000000000000  0.3774890000000  0.5000000000000 1.0  -0.12
Fe     4 -0.0662360000000 -0.0229950000000  0.8675280000000 1.0   3.65
Fe     4  0.0662360000000 -0.0229950000000 -0.8675280000000 1.0   3.65
END
