TITL LFSO-Li2Fe2S3O-200913-030325-8a533c -0.0447 132.963320 -3.47287926E+003 6.15920 6.48223 8 (Pmm2) n - 1
REM
REM Run started: Sun, 13 Sep 2020 03:33:00 +0100 in /lustre/scratch/uccabz1/launch_tmp/launcher_2020-09-13-02-03-24-060807
REM CASTEP 20.1 from code version af48c487+ pr-geom-scf-spinfix Tue Jun 2 15:39:59 2020 +0100
REM Functional Perdew Burke Ernzerhof Relativity Koelling-Harmon Dispersion off
REM Cut-off 340.0000 eV Grid scale 1.7500 Gmax 16.5316 1/A FBSC none
REM MP grid 6 3 2 Offset 0.000 0.000 0.000 No. kpts 6 Spacing 0.07
REM Total runtime: 1802.13 s
REM Overall efficiency: 87.1429 %
REM
REM
REM
REM compiler GCC version 4.9.2
REM options -cpp -iprefix /lustre/shared/ucl/apps/gcc/4.9.2/bin/../lib/gcc/x86_64-unknown-linux-gnu/4.9.2/ -mtune=corei7 -march=x86-64 -g -Og
REM COMMAND_LINE
REM seed -1325849652 1218308920 -1009306013 -377148150 -2022134090 1760947685 2122942691 1275672366 1273758902 -348954106 -550027613 89791037
REM
REM S 3|1.8|5|6|7|30:31:32(qc=5)
REM O 2|1.5|12|13|15|20:21(qc=5)
REM Li 1|1.3|8|9|10|10U:20(qc=5)
REM Fe 3|2.2|2.0|1.0|8|9|10|40:41:32(qc=5)
REM 
CELL 1.54180    2.63639    5.07056    9.94643   90.00000   90.00000   90.00000
LATT -1
SFAC Li O  S  Fe 
Li     1  0.0000000000000 -0.2147810000000 -0.2205070000000 1.0  -0.04
Li     1  0.0000000000000  0.2147810000000 -0.2205070000000 1.0  -0.04
O      2 -0.5000000000000 -0.0000000000000 -0.3303110000000 1.0   0.23
S      3 -0.5000000000000  0.2790040000000 -0.0121170000000 1.0  -0.00
S      3  0.5000000000000 -0.2790040000000 -0.0121170000000 1.0  -0.00
S      3  0.5000000000000 -0.0000000000000  0.3723930000000 1.0   0.07
Fe     4  0.0000000000000 -0.2443970000000 -0.4762620000000 1.0   2.97
Fe     4  0.0000000000000  0.2443970000000 -0.4762620000000 1.0   2.97
END
