TITL LFSO-Li2Fe4S4O-200911-202430-f5fe45 0.0565 196.921535 -5.50693752E+003 5.72669 6.11089 11 (R3) n - 1
REM
REM Run started: Sat, 12 Sep 2020 00:32:56 +0100 in /lustre/scratch/uccabz1/launch_tmp/launcher_2020-09-11-19-24-28-648002
REM CASTEP 20.1 from code version af48c487+ pr-geom-scf-spinfix Tue Jun 2 15:39:59 2020 +0100
REM Functional Perdew Burke Ernzerhof Relativity Koelling-Harmon Dispersion off
REM Cut-off 340.0000 eV Grid scale 1.7500 Gmax 16.5316 1/A FBSC none
REM MP grid 3 3 3 Offset 0.000 0.000 0.000 No. kpts 6 Spacing 0.07
REM Total runtime: 15589.4 s
REM Overall efficiency: 97.1 %
REM
REM
REM
REM compiler GCC version 4.9.2
REM options -cpp -iprefix /lustre/shared/ucl/apps/gcc/4.9.2/bin/../lib/gcc/x86_64-unknown-linux-gnu/4.9.2/ -mtune=corei7 -march=x86-64 -g -Og
REM COMMAND_LINE
REM seed -429527079 -806834096 464931877 -1956750534 767255659 -1290694030 -1207581937 -169184798 -2063118307 1496165443 -366829016 -326290469
REM
REM S 3|1.8|5|6|7|30:31:32(qc=5)
REM O 2|1.5|12|13|15|20:21(qc=5)
REM Li 1|1.3|8|9|10|10U:20(qc=5)
REM Fe 3|2.2|2.0|1.0|8|9|10|40:41:32(qc=5)
REM 
CELL 1.54180    5.89720    5.89720    7.37177   66.42276   66.42276   60.00000
LATT -1
SFAC Li O  S  Fe 
Li     1  0.2751530000000  0.2751530000000  0.1745420000000 1.0   0.02
Li     1 -0.3670940000000 -0.3670940000000  0.1012820000000 1.0  -0.02
O      2 -0.4554800000000 -0.4554800000000  0.3664410000000 1.0   0.21
S      3  0.0862350000000 -0.2956720000000 -0.1011760000000 1.0   0.00
S      3  0.3106130000000  0.0862350000000 -0.1011760000000 1.0   0.00
S      3 -0.2956720000000  0.3106130000000 -0.1011760000000 1.0   0.00
S      3 -0.1724230000000 -0.1724230000000 -0.4827310000000 1.0   0.06
Fe     4  0.4865520000000 -0.2577350000000 -0.2382780000000 1.0   1.06
Fe     4  0.0094610000000  0.4865520000000 -0.2382780000000 1.0   1.06
Fe     4 -0.2577350000000  0.0094610000000 -0.2382780000000 1.0   1.06
Fe     4  0.4593750000000  0.4593750000000 -0.3781260000000 1.0   2.25
END
