TITL LFSO-LiFe3S3O2-200909-122202-385fa2 0.0573 345.242113 -9.15399940E+003 3.76851 11.8689 18 (P222) n - 1
REM
REM Run started: Wed, 09 Sep 2020 16:41:13 +0100 in /lustre/scratch/uccabz1/launch_tmp/launcher_2020-09-09-13-40-49-289552
REM CASTEP 20.1 from code version af48c487+ pr-geom-scf-spinfix Tue Jun 2 15:39:59 2020 +0100
REM Functional Perdew Burke Ernzerhof Relativity Koelling-Harmon Dispersion off
REM Cut-off 340.0000 eV Grid scale 1.7500 Gmax 16.5316 1/A FBSC none
REM MP grid 3 2 2 Offset 0.000 0.000 0.000 No. kpts 2 Spacing 0.07
REM Total runtime: 15688.6 s
REM Overall efficiency: 83.3636 %
REM
REM
REM
REM compiler GCC version 4.9.2
REM options -cpp -iprefix /lustre/shared/ucl/apps/gcc/4.9.2/bin/../lib/gcc/x86_64-unknown-linux-gnu/4.9.2/ -mtune=corei7 -march=x86-64 -g -Og
REM COMMAND_LINE
REM seed -14935629 -1213688001 1096359553 -1670062839 874315673 2067466416 -325107856 -2110359134 612086497 -1981073577 -2074309232 388046471
REM
REM S 3|1.8|5|6|7|30:31:32(qc=5)
REM O 2|1.5|12|13|15|20:21(qc=5)
REM Li 1|1.3|8|9|10|10U:20(qc=5)
REM Fe 3|2.2|2.0|1.0|8|9|10|40:41:32(qc=5)
REM 
CELL 1.54180    5.71750    7.82020    7.72147   90.00000   90.00000   90.00000
LATT -1
SFAC Li O  S  Fe 
Li     1  0.0000000000000  0.2606000000000  0.0000000000000 1.0   0.00
Li     1  0.0000000000000 -0.2606000000000  0.0000000000000 1.0   0.00
O      2  0.2198070000000 -0.3027170000000 -0.1654380000000 1.0   0.33
O      2  0.2198070000000  0.3027170000000  0.1654380000000 1.0   0.33
O      2 -0.2198070000000 -0.3027170000000  0.1654380000000 1.0   0.33
O      2 -0.2198070000000  0.3027170000000 -0.1654380000000 1.0   0.33
S      3 -0.2339620000000 -0.3382230000000 -0.3621970000000 1.0  -0.01
S      3 -0.2339620000000  0.3382230000000  0.3621970000000 1.0  -0.01
S      3  0.2339620000000 -0.3382230000000  0.3621970000000 1.0  -0.01
S      3  0.2339620000000  0.3382230000000 -0.3621970000000 1.0  -0.01
S      3  0.5000000000000  0.0000000000000  0.2859040000000 1.0  -0.15
S      3  0.5000000000000  0.0000000000000 -0.2859040000000 1.0  -0.15
Fe     4 -0.1628240000000 -0.3871150000000  0.3596480000000 1.0   1.55
Fe     4 -0.1628240000000  0.3871150000000 -0.3596480000000 1.0   1.55
Fe     4  0.1628240000000 -0.3871150000000 -0.3596480000000 1.0   1.55
Fe     4  0.1628240000000  0.3871150000000  0.3596480000000 1.0   1.55
Fe     4 -0.5000000000000 -0.1720900000000 -0.5000000000000 1.0  -1.72
Fe     4  0.5000000000000  0.1720900000000  0.5000000000000 1.0  -1.72
END
