TITL LFSO-Li6FeS3O-200910-033226-711cfe -0.0230 196.464202 -3.40829093E+003 2.19060 2.90263 11 (Amm2) n - 1
REM
REM Run started: Thu, 10 Sep 2020 11:49:58 +0100 in /lustre/scratch/uccabz1/launch_tmp/launcher_2020-09-10-02-32-24-110284
REM CASTEP 20.1 from code version af48c487+ pr-geom-scf-spinfix Tue Jun 2 15:39:59 2020 +0100
REM Functional Perdew Burke Ernzerhof Relativity Koelling-Harmon Dispersion off
REM Cut-off 340.0000 eV Grid scale 1.7500 Gmax 16.5316 1/A FBSC none
REM MP grid 4 7 2 Offset 0.000 0.000 0.000 No. kpts 14 Spacing 0.07
REM Total runtime: 32888.7 s
REM Overall efficiency: 95.9167 %
REM
REM
REM
REM compiler GCC version 4.9.2
REM options -cpp -iprefix /lustre/shared/ucl/apps/gcc/4.9.2/bin/../lib/gcc/x86_64-unknown-linux-gnu/4.9.2/ -mtune=corei7 -march=x86-64 -g -Og
REM COMMAND_LINE
REM seed 1725657055 87021423 -1764505220 -1496441345 -5207063 -1943695331 1795134984 -2064681145 1029276611 803209032 -1888922497 -1237632830
REM
REM S 3|1.8|5|6|7|30:31:32(qc=5)
REM O 2|1.5|12|13|15|20:21(qc=5)
REM Li 1|1.3|8|9|10|10U:20(qc=5)
REM Fe 3|2.2|2.0|1.0|8|9|10|40:41:32(qc=5)
REM 
CELL 1.54180    7.39382    4.28467   12.26785   90.00000   90.00000  149.63491
LATT -1
SFAC Li O  S  Fe 
Li     1  0.2949910000000  0.2550460000000  0.1222400000000 1.0  -0.12
Li     1 -0.0399450000000  0.2550460000000 -0.1222400000000 1.0  -0.12
Li     1 -0.0399450000000  0.2550460000000  0.1222400000000 1.0  -0.12
Li     1  0.2949910000000  0.2550460000000 -0.1222400000000 1.0  -0.12
Li     1 -0.4449800000000 -0.8899600000000 -0.3759900000000 1.0  -0.01
Li     1 -0.4449800000000 -0.8899600000000  0.3759900000000 1.0  -0.01
O      2 -0.2221710000000 -0.4443410000000  0.5000000000000 1.0   0.03
S      3 -0.3711300000000  0.2577400000000 -0.1780510000000 1.0   0.05
S      3 -0.3711300000000  0.2577400000000  0.1780510000000 1.0   0.05
S      3 -0.8455970000000 -0.6911930000000 -0.5000000000000 1.0   0.07
Fe     4 -0.3743900000000  0.2512210000000  0.0000000000000 1.0   2.48
END
