TITL LFSO-Li2Fe2S3O-200913-055846-1002e3 -0.0317 247.573240 -6.95324100E+003 -4.62620 12.3330 16 (R3) n - 1
REM
REM Run started: Sun, 13 Sep 2020 11:02:29 +0100 in /lustre/scratch/uccabz1/launch_tmp/launcher_2020-09-13-04-58-44-013896
REM CASTEP 20.1 from code version af48c487+ pr-geom-scf-spinfix Tue Jun 2 15:39:59 2020 +0100
REM Functional Perdew Burke Ernzerhof Relativity Koelling-Harmon Dispersion off
REM Cut-off 340.0000 eV Grid scale 1.7500 Gmax 16.5316 1/A FBSC none
REM MP grid 3 3 3 Offset 0.000 0.000 0.000 No. kpts 6 Spacing 0.07
REM Total runtime: 18319.2 s
REM Overall efficiency: 96.2857 %
REM
REM
REM
REM compiler GCC version 4.9.2
REM options -cpp -iprefix /lustre/shared/ucl/apps/gcc/4.9.2/bin/../lib/gcc/x86_64-unknown-linux-gnu/4.9.2/ -mtune=corei7 -march=x86-64 -g -Og
REM COMMAND_LINE
REM seed 421289132 -876026421 381767189 -326488991 112534888 1497431617 93387860 -751146836 -1243750577 1909964956 -1849442006 -930603058
REM
REM S 3|1.8|5|6|7|30:31:32(qc=5)
REM O 2|1.5|12|13|15|20:21(qc=5)
REM Li 1|1.3|8|9|10|10U:20(qc=5)
REM Fe 3|2.2|2.0|1.0|8|9|10|40:41:32(qc=5)
REM 
CELL 1.54180    6.31787    6.31787    6.31787   96.09445   96.09445   96.09445
LATT -1
SFAC Li O  S  Fe 
Li     1  0.3447100000000 -0.3833180000000  0.2331340000000 1.0   0.01
Li     1  0.2331340000000  0.3447100000000 -0.3833180000000 1.0   0.01
Li     1 -0.3833180000000  0.2331340000000  0.3447100000000 1.0   0.01
Li     1 -0.1206680000000 -0.1206680000000 -0.1206680000000 1.0  -0.01
O      2 -0.3171530000000 -0.3171530000000 -0.3171530000000 1.0  -0.14
O      2  0.3799120000000  0.3799120000000  0.3799120000000 1.0   0.41
S      3 -0.2488060000000  0.1664470000000 -0.3102970000000 1.0  -0.02
S      3 -0.3102970000000 -0.2488060000000  0.1664470000000 1.0  -0.02
S      3  0.1664470000000 -0.3102970000000 -0.2488060000000 1.0  -0.02
S      3 -0.0822730000000  0.3864760000000  0.1909800000000 1.0  -0.02
S      3  0.1909800000000 -0.0822730000000  0.3864760000000 1.0  -0.02
S      3  0.3864760000000  0.1909800000000 -0.0822730000000 1.0  -0.02
Fe     4 -0.0990870000000 -0.3179120000000  0.4651710000000 1.0  -2.69
Fe     4  0.4651710000000 -0.0990870000000 -0.3179120000000 1.0  -2.69
Fe     4 -0.3179120000000  0.4651710000000 -0.0990870000000 1.0  -2.69
Fe     4  0.1968490000000  0.1968490000000  0.1968490000000 1.0   3.26
END
