TITL LFSO-Li4Fe2S3O2-200911-040153-9d02ee 0.0334 179.226728 -4.30911494E+003 7.97387 8.22775 11 (Amm2) n - 1
REM
REM Run started: Fri, 11 Sep 2020 06:00:42 +0100 in /lustre/scratch/uccabz1/launch_tmp/launcher_2020-09-11-03-01-51-433802
REM CASTEP 20.1 from code version af48c487+ pr-geom-scf-spinfix Tue Jun 2 15:39:59 2020 +0100
REM Functional Perdew Burke Ernzerhof Relativity Koelling-Harmon Dispersion off
REM Cut-off 340.0000 eV Grid scale 1.7500 Gmax 16.5316 1/A FBSC none
REM MP grid 4 3 3 Offset 0.000 0.000 0.000 No. kpts 8 Spacing 0.07
REM Total runtime: 7178.33 s
REM Overall efficiency: 94.7 %
REM
REM
REM
REM compiler GCC version 4.9.2
REM options -cpp -iprefix /lustre/shared/ucl/apps/gcc/4.9.2/bin/../lib/gcc/x86_64-unknown-linux-gnu/4.9.2/ -mtune=corei7 -march=x86-64 -g -Og
REM COMMAND_LINE
REM seed 1520629381 1078731741 -443246591 712292551 -334083255 -1703466895 1922528428 1988485436 -35283973 -1983540463 1907201174 -655218039
REM
REM S 3|1.8|5|6|7|30:31:32(qc=5)
REM O 2|1.5|12|13|15|20:21(qc=5)
REM Li 1|1.3|8|9|10|10U:20(qc=5)
REM Fe 3|2.2|2.0|1.0|8|9|10|40:41:32(qc=5)
REM 
CELL 1.54180    3.88825    6.81025    6.81025   96.35679   90.00000   90.00000
LATT -1
SFAC Li O  S  Fe 
Li     1  0.2403260000000 -0.0385340000000  0.5695770000000 1.0   0.01
Li     1 -0.2403260000000 -0.5695770000000  0.0385340000000 1.0   0.01
Li     1  0.2403260000000 -0.5695770000000  0.0385340000000 1.0   0.01
Li     1 -0.2403260000000 -0.0385340000000  0.5695770000000 1.0   0.01
O      2  0.0000000000000  0.0308100000000 -0.6464620000000 1.0   0.26
O      2  0.0000000000000  0.6464620000000 -0.0308100000000 1.0   0.26
S      3  0.5000000000000  0.4096880000000  0.3350630000000 1.0   0.16
S      3 -0.5000000000000 -0.3350630000000 -0.4096880000000 1.0   0.16
S      3 -0.5000000000000  0.0968420000000 -0.0968420000000 1.0   0.23
Fe     4 -0.5000000000000  0.0867440000000  0.2490200000000 1.0   3.44
Fe     4 -0.5000000000000 -0.2490200000000 -0.0867440000000 1.0   3.44
END
