TITL LFSO-Li3Fe3S5O-200929-012837-98bca0 -0.0270 258.504402 -5.14475214E+003 -4.48021 10.0157 12 (Pmmm) n - 1
REM
REM Run started: Tue, 29 Sep 2020 03:48:20 +0100 in /lustre/scratch/uccabz1/launch_tmp/launcher_2020-09-29-00-28-35-607124
REM CASTEP 20.1 from code version af48c487+ pr-geom-scf-spinfix Tue Jun 2 15:39:59 2020 +0100
REM Functional Perdew Burke Ernzerhof Relativity Koelling-Harmon Dispersion off
REM Cut-off 340.0000 eV Grid scale 1.7500 Gmax 16.5316 1/A FBSC none
REM MP grid 4 2 2 Offset 0.000 0.000 0.000 No. kpts 4 Spacing 0.07
REM Total runtime: 9252.34 s
REM Overall efficiency: 97.25 %
REM
REM
REM
REM compiler GCC version 4.9.2
REM options -cpp -iprefix /lustre/shared/ucl/apps/gcc/4.9.2/bin/../lib/gcc/x86_64-unknown-linux-gnu/4.9.2/ -mtune=corei7 -march=x86-64 -g -Og
REM COMMAND_LINE
REM seed 1480120157 262352503 236545831 -2131007830 -1487635544 921624872 -1155308112 1167328513 -74889463 752969989 1501891022 179950194
REM
REM S 3|1.8|5|6|7|30:31:32(qc=5)
REM O 2|1.5|12|13|15|20:21(qc=5)
REM Li 1|1.3|8|9|10|10U:20(qc=5)
REM Fe 3|2.2|2.0|1.0|8|9|10|40:41:32(qc=5)
REM 
CELL 1.54180    4.06491    8.58461    7.40795   90.00000   90.15773   90.00000
LATT -1
SFAC Li O  S  Fe 
Li     1  0.0060400000000  0.0000000000000 -0.2502310000000 1.0  -0.03
Li     1 -0.0060400000000  0.0000000000000  0.2502310000000 1.0  -0.03
Li     1 -0.5000000000000  0.5000000000000 -0.5000000000000 1.0   0.08
O      2  0.0000000000000 -0.0000000000000 -0.5000000000000 1.0  -0.20
S      3  0.4972040000000 -0.1859720000000  0.2079040000000 1.0   0.05
S      3 -0.4972040000000 -0.1859720000000 -0.2079040000000 1.0   0.05
S      3 -0.4972040000000  0.1859720000000 -0.2079040000000 1.0   0.05
S      3  0.4972040000000  0.1859720000000  0.2079040000000 1.0   0.05
S      3  0.0000000000000 -0.5000000000000  0.5000000000000 1.0  -0.80
Fe     4 -0.5000000000000 -0.1294970000000 -0.5000000000000 1.0  -3.01
Fe     4 -0.5000000000000  0.1294970000000 -0.5000000000000 1.0  -3.01
Fe     4 -0.5000000000000 -0.0000000000000  0.0000000000000 1.0   2.32
END
