TITL LFSO-LiFe3SO4-200908-235130-fe5870 0.0277 160.095236 -4.84443648E+003 3.10269 3.29553 9 (Pm) n - 1
REM
REM Run started: Wed, 09 Sep 2020 07:07:20 +0100 in /lustre/scratch/uccabz1/launch_tmp/launcher_2020-09-08-22-51-28-059603
REM CASTEP 20.1 from code version af48c487+ pr-geom-scf-spinfix Tue Jun 2 15:39:59 2020 +0100
REM Functional Perdew Burke Ernzerhof Relativity Koelling-Harmon Dispersion off
REM Cut-off 340.0000 eV Grid scale 1.7500 Gmax 16.5316 1/A FBSC none
REM MP grid 5 2 3 Offset 0.000 0.000 0.000 No. kpts 10 Spacing 0.07
REM Total runtime: 27393.2 s
REM Overall efficiency: 85.6667 %
REM
REM
REM
REM compiler GCC version 4.9.2
REM options -cpp -iprefix /lustre/shared/ucl/apps/gcc/4.9.2/bin/../lib/gcc/x86_64-unknown-linux-gnu/4.9.2/ -mtune=corei7 -march=x86-64 -g -Og
REM COMMAND_LINE
REM seed 1574825306 1841503895 -1123425632 -983643772 -2131160543 1599355336 156730624 1915796973 -598631354 -1304327133 850220461 -1237372665
REM
REM S 3|1.8|5|6|7|30:31:32(qc=5)
REM O 2|1.5|12|13|15|20:21(qc=5)
REM Li 1|1.3|8|9|10|10U:20(qc=5)
REM Fe 3|2.2|2.0|1.0|8|9|10|40:41:32(qc=5)
REM 
CELL 1.54180    2.99619    9.00838    6.08420   90.00000   90.00000  102.86499
LATT -1
SFAC Li O  S  Fe 
Li     1 -0.3948170000000 -0.2385020000000  0.0000000000000 1.0  -0.02
O      2  0.2821060000000  0.2093760000000 -0.2778020000000 1.0   0.00
O      2  0.2821060000000  0.2093760000000  0.2778020000000 1.0   0.00
O      2 -0.3632430000000 -0.1943380000000  0.3040840000000 1.0   0.14
O      2 -0.3632430000000 -0.1943380000000 -0.3040840000000 1.0   0.14
S      3 -0.0496830000000 -0.5320750000000  0.0000000000000 1.0   0.00
Fe     4 -0.1801000000000  0.2661020000000 -0.1822080000000 1.0  -0.01
Fe     4 -0.1801000000000  0.2661020000000  0.1822080000000 1.0  -0.01
Fe     4  0.1405520000000 -0.1921560000000  0.5000000000000 1.0   2.87
END
