TITL LFSO-Li6FeSO3-200909-214751-a89cb3 0.0706 325.035442 -7.36084279E+003 8.00003 8.53253 22 (R3) n - 1
REM
REM Run started: Thu, 10 Sep 2020 05:25:49 +0100 in /lustre/scratch/uccabz1/launch_tmp/launcher_2020-09-09-20-47-50-031813
REM CASTEP 20.1 from code version af48c487+ pr-geom-scf-spinfix Tue Jun 2 15:39:59 2020 +0100
REM Functional Perdew Burke Ernzerhof Relativity Koelling-Harmon Dispersion off
REM Cut-off 340.0000 eV Grid scale 1.7500 Gmax 16.5316 1/A FBSC none
REM MP grid 3 3 3 Offset 0.000 0.000 0.000 No. kpts 6 Spacing 0.07
REM Total runtime: 30690.8 s
REM Overall efficiency: 98.5 %
REM
REM
REM
REM compiler GCC version 4.9.2
REM options -cpp -iprefix /lustre/shared/ucl/apps/gcc/4.9.2/bin/../lib/gcc/x86_64-unknown-linux-gnu/4.9.2/ -mtune=corei7 -march=x86-64 -g -Og
REM COMMAND_LINE
REM seed 1813525886 1692782434 -374494851 -209216739 1338700270 -843187602 -424069293 -1761581281 1876837642 1081126927 1910482357 -797220503
REM
REM S 3|1.8|5|6|7|30:31:32(qc=5)
REM O 2|1.5|12|13|15|20:21(qc=5)
REM Li 1|1.3|8|9|10|10U:20(qc=5)
REM Fe 3|2.2|2.0|1.0|8|9|10|40:41:32(qc=5)
REM 
CELL 1.54180    7.37375    7.37375    7.37375   66.82386   66.82386   66.82386
LATT -1
SFAC Li O  S  Fe 
Li     1  0.2484240000000  0.1063920000000 -0.3778510000000 1.0  -0.03
Li     1  0.1063920000000 -0.3778510000000  0.2484240000000 1.0  -0.03
Li     1 -0.3778510000000  0.2484240000000  0.1063920000000 1.0  -0.03
Li     1  0.3748010000000 -0.3256740000000 -0.2275580000000 1.0  -0.06
Li     1 -0.3256740000000 -0.2275580000000  0.3748010000000 1.0  -0.06
Li     1 -0.2275580000000  0.3748010000000 -0.3256740000000 1.0  -0.06
Li     1  0.4021010000000  0.2029680000000 -0.0694820000000 1.0   0.04
Li     1  0.2029680000000 -0.0694820000000  0.4021010000000 1.0   0.04
Li     1 -0.0694820000000  0.4021010000000  0.2029680000000 1.0   0.04
Li     1  0.0652220000000 -0.3323330000000 -0.3590850000000 1.0  -0.03
Li     1 -0.3323330000000 -0.3590850000000  0.0652220000000 1.0  -0.03
Li     1 -0.3590850000000  0.0652220000000 -0.3323330000000 1.0  -0.03
O      2 -0.3013060000000  0.1521150000000 -0.1347190000000 1.0   0.19
O      2  0.1521150000000 -0.1347190000000 -0.3013060000000 1.0   0.19
O      2 -0.1347190000000 -0.3013060000000  0.1521150000000 1.0   0.19
O      2 -0.3145140000000  0.3694200000000  0.2413350000000 1.0   0.22
O      2  0.3694200000000  0.2413350000000 -0.3145140000000 1.0   0.22
O      2  0.2413350000000 -0.3145140000000  0.3694200000000 1.0   0.22
S      3  0.2535890000000  0.2535890000000  0.2535890000000 1.0   0.00
S      3 -0.2975670000000 -0.2975670000000 -0.2975670000000 1.0   0.00
Fe     4  0.4416540000000  0.4416540000000  0.4416540000000 1.0   3.51
Fe     4 -0.0862920000000 -0.0862920000000 -0.0862920000000 1.0   3.52
END
