TITL LFSO-LiFe3SO4-200909-013658-1fc962 0.0221 101.900863 -4.84464167E+003 -0.814924 5.21454 9 (Imm2) n - 1
REM
REM Run started: Wed, 09 Sep 2020 05:52:35 +0100 in /lustre/scratch/uccabz1/launch_tmp/launcher_2020-09-09-00-36-56-169542
REM CASTEP 20.1 from code version af48c487+ pr-geom-scf-spinfix Tue Jun 2 15:39:59 2020 +0100
REM Functional Perdew Burke Ernzerhof Relativity Koelling-Harmon Dispersion off
REM Cut-off 340.0000 eV Grid scale 1.7500 Gmax 16.5316 1/A FBSC none
REM MP grid 5 4 6 Offset 0.000 0.000 0.000 No. kpts 60 Spacing 0.07
REM Total runtime: 18200.6 s
REM Overall efficiency: 96.2857 %
REM
REM
REM
REM compiler GCC version 4.9.2
REM options -cpp -iprefix /lustre/shared/ucl/apps/gcc/4.9.2/bin/../lib/gcc/x86_64-unknown-linux-gnu/4.9.2/ -mtune=corei7 -march=x86-64 -g -Og
REM COMMAND_LINE
REM seed 1717821937 -910713667 -1784149244 917803344 -726266510 -1857451362 183718556 -1399767707 1728583639 1240262937 -660449511 -1976609353
REM
REM S 3|1.8|5|6|7|30:31:32(qc=5)
REM O 2|1.5|12|13|15|20:21(qc=5)
REM Li 1|1.3|8|9|10|10U:20(qc=5)
REM Fe 3|2.2|2.0|1.0|8|9|10|40:41:32(qc=5)
REM 
CELL 1.54180    5.01312    8.41945    5.46199  140.41960  117.31677   90.00000
LATT -1
SFAC Li O  S  Fe 
Li     1 -0.2580050000000 -0.2580050000000  0.4839890000000 1.0  -0.09
O      2 -0.4530900000000  0.1414840000000 -0.3826840000000 1.0   0.00
O      2  0.0704060000000 -0.5241680000000 -0.3826840000000 1.0   0.00
O      2 -0.4530900000000 -0.5241680000000 -0.3826840000000 1.0   0.00
O      2  0.0704060000000  0.1414840000000 -0.3826840000000 1.0   0.00
S      3 -0.6988300000000 -0.1988300000000 -0.3976600000000 1.0  -0.09
Fe     4  0.0754170000000  0.3564830000000  0.1508340000000 1.0  -1.35
Fe     4  0.0754170000000 -0.2056490000000  0.1508340000000 1.0  -1.35
Fe     4  0.2622680000000  0.2622680000000 -0.4754650000000 1.0   2.06
END
