TITL LFSO-Li6FeS3O-200910-015802-43ccd2 0.2110 501.391989 -6.82149271E+003 7.99989 8.33090 22 (Cmc21) n - 1
REM
REM Run started: Thu, 10 Sep 2020 09:08:43 +0100 in /lustre/scratch/uccabz1/launch_tmp/launcher_2020-09-10-07-44-10-190836
REM CASTEP 20.1 from code version af48c487+ pr-geom-scf-spinfix Tue Jun 2 15:39:59 2020 +0100
REM Functional Perdew Burke Ernzerhof Relativity Koelling-Harmon Dispersion off
REM Cut-off 340.0000 eV Grid scale 1.7500 Gmax 16.5316 1/A FBSC none
REM MP grid 3 2 2 Offset 0.000 0.000 0.000 No. kpts 3 Spacing 0.07
REM Total runtime: 22600.4 s
REM Overall efficiency: 97.8182 %
REM
REM
REM
REM compiler GCC version 4.9.2
REM options -cpp -iprefix /lustre/shared/ucl/apps/gcc/4.9.2/bin/../lib/gcc/x86_64-unknown-linux-gnu/4.9.2/ -mtune=corei7 -march=x86-64 -g -Og
REM COMMAND_LINE
REM seed 309253102 1464403372 925303260 32516592 1639345507 1893675401 1633904135 702935 37711791 145796019 1400592915 -595279803
REM
REM S 3|1.8|5|6|7|30:31:32(qc=5)
REM O 2|1.5|12|13|15|20:21(qc=5)
REM Li 1|1.3|8|9|10|10U:20(qc=5)
REM Fe 3|2.2|2.0|1.0|8|9|10|40:41:32(qc=5)
REM 
CELL 1.54180    7.46247    8.47625    8.82801   90.00000   90.00000  116.11658
LATT -1
SFAC Li O  S  Fe 
Li     1 -0.0516850000000  0.2394650000000 -0.0340360000000 1.0  -0.00
Li     1  0.0516850000000 -0.2394650000000  0.4659640000000 1.0  -0.00
Li     1 -0.2911500000000 -0.2394650000000  0.4659640000000 1.0  -0.00
Li     1  0.2911500000000  0.2394650000000 -0.0340360000000 1.0  -0.00
Li     1 -0.1595630000000  0.0661840000000  0.3841310000000 1.0   0.01
Li     1  0.1595630000000 -0.0661840000000 -0.1158690000000 1.0   0.01
Li     1 -0.2257470000000 -0.0661840000000 -0.1158690000000 1.0   0.01
Li     1  0.2257470000000  0.0661840000000  0.3841310000000 1.0   0.01
Li     1  0.4686440000000 -0.6191600000000 -0.4671280000000 1.0  -0.03
Li     1 -0.4686440000000  0.6191600000000  0.0328720000000 1.0  -0.03
Li     1  0.0878040000000  0.6191600000000  0.0328720000000 1.0  -0.03
Li     1 -0.0878040000000 -0.6191600000000 -0.4671280000000 1.0  -0.03
O      2  0.0328290000000  0.0656580000000 -0.0535640000000 1.0   0.01
O      2 -0.0328290000000 -0.0656580000000 -0.5535640000000 1.0   0.01
S      3  0.5030890000000  0.4650560000000 -0.2075190000000 1.0   0.22
S      3 -0.5030890000000 -0.4650560000000  0.2924810000000 1.0   0.22
S      3  0.0380330000000 -0.4650560000000  0.2924810000000 1.0   0.22
S      3 -0.0380330000000  0.4650560000000 -0.2075190000000 1.0   0.22
S      3 -0.4207000000000  0.1586000000000  0.4220280000000 1.0   0.19
S      3  0.4207000000000 -0.1586000000000 -0.0779720000000 1.0   0.19
Fe     4 -0.2897320000000  0.4205370000000  0.2966100000000 1.0   3.41
Fe     4  0.2897320000000 -0.4205370000000 -0.2033900000000 1.0   3.41
END
