TITL LFSO-LiFe3S2O3-200909-171944-bcde3d 1.1384 241.198667 -9.42421699E+003 -3.49844 17.7483 18 (R3) n - 1
REM
REM Run started: Thu, 10 Sep 2020 11:58:35 +0100 in /lustre/scratch/uccabz1/launch_tmp/launcher_2020-09-10-10-22-34-946018
REM CASTEP 20.1 from code version af48c487+ pr-geom-scf-spinfix Tue Jun 2 15:39:59 2020 +0100
REM Functional Perdew Burke Ernzerhof Relativity Koelling-Harmon Dispersion off
REM Cut-off 340.0000 eV Grid scale 1.7500 Gmax 16.5316 1/A FBSC none
REM MP grid 3 3 4 Offset 0.000 0.000 0.000 No. kpts 14 Spacing 0.07
REM Total runtime: 53132 s
REM Overall efficiency: 98.3636 %
REM
REM
REM
REM compiler GCC version 4.9.2
REM options -cpp -iprefix /lustre/shared/ucl/apps/gcc/4.9.2/bin/../lib/gcc/x86_64-unknown-linux-gnu/4.9.2/ -mtune=corei7 -march=x86-64 -g -Og
REM COMMAND_LINE
REM seed -271127760 1645347228 -370454198 -31328225 -2146692376 1398642506 1476371278 1153685774 1585945949 -395728824 -2052267744 -743126332
REM
REM S 3|1.8|5|6|7|30:31:32(qc=5)
REM O 2|1.5|12|13|15|20:21(qc=5)
REM Li 1|1.3|8|9|10|10U:20(qc=5)
REM Fe 3|2.2|2.0|1.0|8|9|10|40:41:32(qc=5)
REM 
CELL 1.54180    8.08166    8.08166    6.32099   50.26247   50.26247   60.00000
LATT -1
SFAC Li O  S  Fe 
Li     1  0.5181530000000  0.5181530000000 -0.5544580000000 1.0  -0.01
Li     1 -0.0762660000000 -0.0762660000000  0.2287990000000 1.0   0.03
O      2  0.5285800000000 -0.4904490000000  0.1137100000000 1.0  -0.10
O      2 -0.4904490000000 -0.1518400000000  0.1137100000000 1.0  -0.10
O      2 -0.1518400000000  0.5285800000000  0.1137100000000 1.0  -0.10
O      2 -0.3961130000000 -0.0626470000000  0.4720890000000 1.0  -0.07
O      2 -0.0626470000000 -0.0133280000000  0.4720890000000 1.0  -0.07
O      2 -0.0133280000000 -0.3961130000000  0.4720890000000 1.0  -0.07
S      3  0.1927080000000 -0.2425200000000 -0.1805620000000 1.0  -0.12
S      3 -0.2425200000000  0.2303750000000 -0.1805620000000 1.0  -0.12
S      3  0.2303750000000  0.1927080000000 -0.1805620000000 1.0  -0.12
S      3  0.2328420000000  0.2328420000000 -0.6985240000000 1.0   0.21
Fe     4  0.5076620000000  0.2229620000000  0.2908380000000 1.0   2.31
Fe     4  0.2229620000000 -0.0214600000000  0.2908380000000 1.0   2.31
Fe     4 -0.0214600000000  0.5076620000000  0.2908380000000 1.0   2.31
Fe     4 -0.1519430000000 -0.5562690000000 -0.1072980000000 1.0  -3.26
Fe     4 -0.5562690000000 -0.1844890000000 -0.1072980000000 1.0  -3.26
Fe     4 -0.1844890000000 -0.1519430000000 -0.1072980000000 1.0  -3.26
END
