TITL LFSO-Li4Fe2S2O3-200911-073312-f23dbd -0.0128 228.856007 -4.44620772E+003 6.00026 6.27747 11 (R3) n - 1
REM
REM Run started: Fri, 11 Sep 2020 08:33:43 +0100 in /lustre/scratch/uccabz1/launch_tmp/launcher_2020-09-11-06-33-11-347086
REM CASTEP 20.1 from code version af48c487+ pr-geom-scf-spinfix Tue Jun 2 15:39:59 2020 +0100
REM Functional Perdew Burke Ernzerhof Relativity Koelling-Harmon Dispersion off
REM Cut-off 340.0000 eV Grid scale 1.7500 Gmax 16.5316 1/A FBSC none
REM MP grid 3 3 3 Offset 0.000 0.000 0.000 No. kpts 6 Spacing 0.07
REM Total runtime: 5431.63 s
REM Overall efficiency: 96 %
REM
REM
REM
REM compiler GCC version 4.9.2
REM options -cpp -iprefix /lustre/shared/ucl/apps/gcc/4.9.2/bin/../lib/gcc/x86_64-unknown-linux-gnu/4.9.2/ -mtune=corei7 -march=x86-64 -g -Og
REM COMMAND_LINE
REM seed 910769788 666386886 295055304 -1957427190 996880644 976028412 -574201101 -1982054858 736108129 -900711275 1475945825 -1979714137
REM
REM S 3|1.8|5|6|7|30:31:32(qc=5)
REM O 2|1.5|12|13|15|20:21(qc=5)
REM Li 1|1.3|8|9|10|10U:20(qc=5)
REM Fe 3|2.2|2.0|1.0|8|9|10|40:41:32(qc=5)
REM 
CELL 1.54180    6.13410    6.13410    6.13410   85.58759   85.58759   85.58759
LATT -1
SFAC Li O  S  Fe 
Li     1 -0.0209470000000  0.3583900000000 -0.2958110000000 1.0  -0.04
Li     1  0.3583900000000 -0.2958110000000 -0.0209470000000 1.0  -0.04
Li     1 -0.2958110000000 -0.0209470000000  0.3583900000000 1.0  -0.04
Li     1  0.4485080000000  0.4485080000000  0.4485080000000 1.0   0.07
O      2  0.1671800000000  0.2277260000000 -0.4913630000000 1.0   0.21
O      2  0.2277260000000 -0.4913630000000  0.1671800000000 1.0   0.21
O      2 -0.4913630000000  0.1671800000000  0.2277260000000 1.0   0.21
S      3  0.0363810000000  0.0363810000000  0.0363810000000 1.0   0.18
S      3 -0.3424800000000 -0.3424800000000 -0.3424800000000 1.0   0.12
Fe     4  0.2363570000000  0.2363570000000  0.2363570000000 1.0   1.81
Fe     4 -0.1524520000000 -0.1524520000000 -0.1524520000000 1.0   3.29
END
