TITL LFSO-Li3Fe3SO5-200927-083709-50d8eb 0.0150 175.110183 -5.68133126E+003 11.3978 11.6945 12 (P3) n - 1
REM
REM Run started: Sun, 27 Sep 2020 10:59:32 +0100 in /lustre/scratch/uccabz1/launch_tmp/launcher_2020-09-27-07-37-07-103820
REM CASTEP 20.1 from code version af48c487+ pr-geom-scf-spinfix Tue Jun 2 15:39:59 2020 +0100
REM Functional Perdew Burke Ernzerhof Relativity Koelling-Harmon Dispersion off
REM Cut-off 340.0000 eV Grid scale 1.7500 Gmax 16.5316 1/A FBSC none
REM MP grid 4 4 3 Offset 0.000 0.000 0.000 No. kpts 24 Spacing 0.07
REM Total runtime: 8644.68 s
REM Overall efficiency: 95 %
REM
REM
REM
REM compiler GCC version 4.9.2
REM options -cpp -iprefix /lustre/shared/ucl/apps/gcc/4.9.2/bin/../lib/gcc/x86_64-unknown-linux-gnu/4.9.2/ -mtune=corei7 -march=x86-64 -g -Og
REM COMMAND_LINE
REM seed -1068330788 -1858820234 -874597776 594025864 -1814175868 -1473404653 -1140899041 -436832539 -1580496961 -1739071478 -1924853789 -853498367
REM
REM S 3|1.8|5|6|7|30:31:32(qc=5)
REM O 2|1.5|12|13|15|20:21(qc=5)
REM Li 1|1.3|8|9|10|10U:20(qc=5)
REM Fe 3|2.2|2.0|1.0|8|9|10|40:41:32(qc=5)
REM 
CELL 1.54180    5.33949    5.33949    7.09220   90.00000   90.00000  120.00000
LATT -1
SFAC Li O  S  Fe 
Li     1  0.3316280000000  0.3339870000000  0.2848880000000 1.0   0.02
Li     1  0.0023580000000 -0.3316280000000  0.2848880000000 1.0   0.02
Li     1 -0.3339870000000 -0.0023580000000  0.2848880000000 1.0   0.02
O      2  0.3376030000000  0.0063070000000  0.3744020000000 1.0   0.38
O      2 -0.3312950000000 -0.3376030000000  0.3744020000000 1.0   0.38
O      2 -0.0063070000000  0.3312950000000  0.3744020000000 1.0   0.38
O      2  0.0000000000000 -0.0000000000000 -0.2523490000000 1.0   0.15
O      2  0.3333330000000 -0.3333330000000 -0.2734240000000 1.0   0.29
S      3  0.0000000000000 -0.0000000000000 -0.0069220000000 1.0  -0.04
Fe     4 -0.0101400000000  0.3470340000000 -0.3799480000000 1.0   3.27
Fe     4  0.3571740000000  0.0101400000000 -0.3799480000000 1.0   3.27
Fe     4 -0.3470340000000 -0.3571740000000 -0.3799480000000 1.0   3.27
END
