TITL LFSO-Li4Fe2S3O-200911-004759-159f4b -0.0055 377.715025 -7.75169465E+003 15.9997 16.0640 20 (C2221) n - 1
REM
REM Run started: Fri, 11 Sep 2020 06:48:54 +0100 in /lustre/scratch/uccabz1/launch_tmp/launcher_2020-09-10-23-47-57-208423
REM CASTEP 20.1 from code version af48c487+ pr-geom-scf-spinfix Tue Jun 2 15:39:59 2020 +0100
REM Functional Perdew Burke Ernzerhof Relativity Koelling-Harmon Dispersion off
REM Cut-off 340.0000 eV Grid scale 1.7500 Gmax 16.5316 1/A FBSC none
REM MP grid 3 3 2 Offset 0.000 0.000 0.000 No. kpts 4 Spacing 0.07
REM Total runtime: 23832.3 s
REM Overall efficiency: 98.4444 %
REM
REM
REM
REM compiler GCC version 4.9.2
REM options -cpp -iprefix /lustre/shared/ucl/apps/gcc/4.9.2/bin/../lib/gcc/x86_64-unknown-linux-gnu/4.9.2/ -mtune=corei7 -march=x86-64 -g -Og
REM COMMAND_LINE
REM seed -1549378596 -1801328664 440380658 276178542 1694628865 -1838539751 1826035 -129350280 459348974 -1717804818 -1880108035 222452722
REM
REM S 3|1.8|5|6|7|30:31:32(qc=5)
REM O 2|1.5|12|13|15|20:21(qc=5)
REM Li 1|1.3|8|9|10|10U:20(qc=5)
REM Fe 3|2.2|2.0|1.0|8|9|10|40:41:32(qc=5)
REM 
CELL 1.54180    6.67594    6.67594    9.88042   90.00000   90.00000  120.93425
LATT -1
SFAC Li O  S  Fe 
Li     1 -0.2464930000000 -0.1666960000000 -0.1237490000000 1.0   0.02
Li     1  0.2464930000000  0.1666960000000  0.3762510000000 1.0   0.02
Li     1 -0.1666960000000 -0.2464930000000 -0.3762510000000 1.0   0.02
Li     1  0.1666960000000  0.2464930000000  0.1237490000000 1.0   0.02
Li     1 -0.5849460000000  0.0282430000000 -0.0465090000000 1.0  -0.04
Li     1  0.5849460000000 -0.0282430000000  0.4534910000000 1.0  -0.04
Li     1  0.0282430000000 -0.5849460000000 -0.4534910000000 1.0  -0.04
Li     1 -0.0282430000000  0.5849460000000  0.0465090000000 1.0  -0.04
O      2 -0.2761830000000  0.2761830000000 -0.0000000000000 1.0   0.33
O      2  0.2761830000000 -0.2761830000000 -0.5000000000000 1.0   0.33
S      3 -0.0842220000000  0.2382870000000  0.3153310000000 1.0   0.19
S      3  0.0842220000000 -0.2382870000000 -0.1846690000000 1.0   0.19
S      3  0.2382870000000 -0.0842220000000  0.1846690000000 1.0   0.19
S      3 -0.2382870000000  0.0842220000000 -0.3153310000000 1.0   0.19
S      3 -0.4732710000000 -0.4732710000000  0.2500000000000 1.0   0.30
S      3  0.4732710000000  0.4732710000000 -0.2500000000000 1.0   0.30
Fe     4 -0.2481820000000  0.3787140000000 -0.1874900000000 1.0   3.52
Fe     4  0.2481820000000 -0.3787140000000  0.3125100000000 1.0   3.52
Fe     4  0.3787140000000 -0.2481820000000 -0.3125100000000 1.0   3.52
Fe     4 -0.3787140000000  0.2481820000000  0.1874900000000 1.0   3.52
END
