TITL LFSO-Li3Fe3S5O-200928-152055-cac96c 4.3901 446.008789 -1.02867776E+004 -12.0419 12.9140 24 (Aem2) n - 1
REM
REM Run started: Wed, 30 Sep 2020 23:23:40 +0100 in /lustre/scratch/uccabz1/launch_tmp/launcher_2020-09-30-15-16-42-618086
REM CASTEP 20.1 from code version af48c487+ pr-geom-scf-spinfix Tue Jun 2 15:39:59 2020 +0100
REM Functional Perdew Burke Ernzerhof Relativity Koelling-Harmon Dispersion off
REM Cut-off 340.0000 eV Grid scale 1.7500 Gmax 16.5316 1/A FBSC none
REM MP grid 3 3 1 Offset 0.000 0.000 0.000 No. kpts 4 Spacing 0.07
REM Total runtime: 199048 s
REM Overall efficiency: 98.1667 %
REM
REM
REM
REM compiler GCC version 4.9.2
REM options -cpp -iprefix /lustre/shared/ucl/apps/gcc/4.9.2/bin/../lib/gcc/x86_64-unknown-linux-gnu/4.9.2/ -mtune=corei7 -march=x86-64 -g -Og
REM COMMAND_LINE
REM seed 252594058 -288228717 -118211025 2092437323 206010268 -1067967133 -880214315 330709359 -1717744742 1449662068 -694806458 1501716577
REM
REM S 3|1.8|5|6|7|30:31:32(qc=5)
REM O 2|1.5|12|13|15|20:21(qc=5)
REM Li 1|1.3|8|9|10|10U:20(qc=5)
REM Fe 3|2.2|2.0|1.0|8|9|10|40:41:32(qc=5)
REM 
CELL 1.54180    6.01813    6.01813   14.89339   90.00000   90.00000  124.22357
LATT -1
SFAC Li O  S  Fe 
Li     1  0.1144670000000 -0.1438250000000 -0.2388550000000 1.0  -0.03
Li     1  0.1438250000000 -0.1144670000000  0.2388550000000 1.0  -0.03
Li     1  0.6438250000000  0.3855330000000 -0.2388550000000 1.0  -0.03
Li     1 -0.3855330000000 -0.6438250000000  0.2388550000000 1.0  -0.03
Li     1 -0.0574950000000  0.0574950000000  0.0000000000000 1.0  -0.01
Li     1  0.4425050000000 -0.4425050000000  0.0000000000000 1.0  -0.01
O      2 -0.2739230000000 -0.2260770000000  0.4836910000000 1.0  -0.27
O      2  0.2260770000000  0.2739230000000 -0.4836910000000 1.0  -0.27
S      3  0.1313500000000 -0.2597000000000  0.3822090000000 1.0  -0.10
S      3  0.2597000000000 -0.1313500000000 -0.3822090000000 1.0  -0.10
S      3 -0.2403000000000  0.3686500000000  0.3822090000000 1.0  -0.10
S      3 -0.3686500000000  0.2403000000000 -0.3822090000000 1.0  -0.10
S      3  0.3252600000000 -0.2377500000000  0.1235000000000 1.0  -0.01
S      3  0.2377500000000 -0.3252600000000 -0.1235000000000 1.0  -0.01
S      3 -0.2622500000000  0.1747400000000  0.1235000000000 1.0  -0.01
S      3 -0.1747400000000  0.2622500000000 -0.1235000000000 1.0  -0.01
S      3 -0.2803410000000 -0.2196590000000 -0.2955550000000 1.0  -0.12
S      3  0.2196590000000  0.2803410000000  0.2955550000000 1.0  -0.12
Fe     4 -0.0251020000000 -0.0362960000000 -0.4161540000000 1.0  -2.61
Fe     4  0.0362960000000  0.0251020000000  0.4161540000000 1.0  -2.61
Fe     4 -0.4637040000000 -0.4748980000000 -0.4161540000000 1.0  -2.61
Fe     4  0.4748980000000  0.4637040000000  0.4161540000000 1.0  -2.61
Fe     4 -0.3015310000000  0.3015310000000  0.0000000000000 1.0  -0.13
Fe     4  0.1984690000000 -0.1984690000000  0.0000000000000 1.0  -0.13
END
