TITL LFSO-Li4Fe2S3O-200911-010648-26ead5 0.0166 146.365357 -3.87253503E+003 -0.112514E-03 0.127612E-03 10 (Imm2) n - 1
REM
REM Run started: Fri, 11 Sep 2020 02:15:06 +0100 in /lustre/scratch/uccabz1/launch_tmp/launcher_2020-09-11-00-06-46-350427
REM CASTEP 20.1 from code version af48c487+ pr-geom-scf-spinfix Tue Jun 2 15:39:59 2020 +0100
REM Functional Perdew Burke Ernzerhof Relativity Koelling-Harmon Dispersion off
REM Cut-off 340.0000 eV Grid scale 1.7500 Gmax 16.5316 1/A FBSC none
REM MP grid 4 4 3 Offset 0.000 0.000 0.000 No. kpts 24 Spacing 0.07
REM Total runtime: 6088.01 s
REM Overall efficiency: 97 %
REM
REM
REM
REM compiler GCC version 4.9.2
REM options -cpp -iprefix /lustre/shared/ucl/apps/gcc/4.9.2/bin/../lib/gcc/x86_64-unknown-linux-gnu/4.9.2/ -mtune=corei7 -march=x86-64 -g -Og
REM COMMAND_LINE
REM seed 1781630187 717627237 396380148 -1986662104 325576941 957513926 -1813955156 1980686010 480633873 -1838334556 -1382858253 1321597449
REM
REM S 3|1.8|5|6|7|30:31:32(qc=5)
REM O 2|1.5|12|13|15|20:21(qc=5)
REM Li 1|1.3|8|9|10|10U:20(qc=5)
REM Fe 3|2.2|2.0|1.0|8|9|10|40:41:32(qc=5)
REM 
CELL 1.54180    6.61090    6.61090    6.61090   67.13564  131.43466  136.61757
LATT -1
SFAC Li O  S  Fe 
Li     1  0.4996230000000 -0.5018250000000  0.5144450000000 1.0
Li     1 -0.4996230000000  0.0148230000000 -0.0014480000000 1.0
Li     1  0.0162710000000  0.0148230000000  0.5144450000000 1.0
Li     1 -0.0162710000000 -0.5018250000000 -0.0014480000000 1.0
O      2  0.5000000000000  0.1919830000000 -0.3080170000000 1.0
S      3 -0.2339890000000 -0.0528480000000 -0.2868370000000 1.0
S      3  0.2339890000000 -0.0528480000000  0.1811410000000 1.0
S      3 -0.5000000000000 -0.3683790000000  0.1316210000000 1.0
Fe     4  0.2331990000000 -0.2314110000000  0.5353900000000 1.0
Fe     4 -0.2331990000000  0.3021910000000  0.5353900000000 1.0
END
