TITL LFSO-Li3Fe3S4O2-200929-195549-e74b3b -0.0933 448.072297 -1.05623180E+004 21.5794 21.9746 24 (P21) n - 1
REM
REM Run started: Wed, 30 Sep 2020 09:51:44 +0100 in /lustre/scratch/uccabz1/launch_tmp/launcher_2020-09-30-08-32-19-390583
REM CASTEP 20.1 from code version af48c487+ pr-geom-scf-spinfix Tue Jun 2 15:39:59 2020 +0100
REM Functional Perdew Burke Ernzerhof Relativity Koelling-Harmon Dispersion off
REM Cut-off 340.0000 eV Grid scale 1.7500 Gmax 16.5316 1/A FBSC none
REM MP grid 2 2 3 Offset 0.000 0.000 0.000 No. kpts 3 Spacing 0.07
REM Total runtime: 46001.3 s
REM Overall efficiency: 89.0769 %
REM
REM
REM
REM compiler GCC version 4.9.2
REM options -cpp -iprefix /lustre/shared/ucl/apps/gcc/4.9.2/bin/../lib/gcc/x86_64-unknown-linux-gnu/4.9.2/ -mtune=corei7 -march=x86-64 -g -Og
REM COMMAND_LINE
REM seed -1464501202 878645601 -1810905400 1979008179 460456644 1919479024 -1860755297 540818980 -179111234 -344913620 1577775132 809820344
REM
REM S 3|1.8|5|6|7|30:31:32(qc=5)
REM O 2|1.5|12|13|15|20:21(qc=5)
REM Li 1|1.3|8|9|10|10U:20(qc=5)
REM Fe 3|2.2|2.0|1.0|8|9|10|40:41:32(qc=5)
REM 
CELL 1.54180    7.51087    9.60117    6.31321   90.00000   79.80130   90.00000
LATT -1
SFAC Li O  S  Fe 
Li     1 -0.2043950000000 -0.5118760000000  0.0127150000000 1.0  -0.01
Li     1  0.2043950000000 -0.0118760000000 -0.0127150000000 1.0  -0.01
Li     1 -0.4383190000000 -0.1662460000000  0.1744530000000 1.0   0.06
Li     1  0.4383190000000  0.3337540000000 -0.1744530000000 1.0   0.06
Li     1  0.2588040000000 -0.3694510000000  0.5212070000000 1.0   0.01
Li     1 -0.2588040000000  0.1305490000000 -0.5212070000000 1.0   0.01
O      2 -0.1020180000000  0.4567550000000  0.2485160000000 1.0   0.37
O      2  0.1020180000000 -0.0432450000000 -0.2485160000000 1.0   0.37
O      2  0.0728530000000 -0.5074010000000 -0.4207070000000 1.0   0.29
O      2 -0.0728530000000 -0.0074010000000  0.4207070000000 1.0   0.29
S      3 -0.2638580000000  0.2636330000000 -0.1912010000000 1.0   0.36
S      3  0.2638580000000 -0.2363670000000  0.1912010000000 1.0   0.36
S      3  0.5583150000000 -0.4075000000000 -0.3587930000000 1.0   0.15
S      3 -0.5583150000000  0.0925000000000  0.3587930000000 1.0   0.15
S      3 -0.3317570000000 -0.2072180000000 -0.4582350000000 1.0   0.08
S      3  0.3317570000000  0.2927820000000  0.4582350000000 1.0   0.08
S      3  0.1647910000000  0.2483270000000  0.0193680000000 1.0   0.15
S      3 -0.1647910000000 -0.2516730000000 -0.0193680000000 1.0   0.15
Fe     4 -0.0264340000000 -0.1988080000000  0.2726090000000 1.0   3.41
Fe     4  0.0264340000000  0.3011920000000 -0.2726090000000 1.0   3.41
Fe     4  0.1370490000000  0.0753980000000 -0.4904450000000 1.0   3.53
Fe     4 -0.1370490000000 -0.4246020000000  0.4904450000000 1.0   3.53
Fe     4 -0.1006670000000 -0.1251800000000 -0.3183550000000 1.0   2.40
Fe     4  0.1006670000000  0.3748200000000  0.3183550000000 1.0   2.40
END
