TITL LFSO-Li2Fe4S2O3-200912-080938-2d5e6d 0.0613 420.188177 -1.15492092E+004 31.9092 32.3740 22 (Fdd2) n - 1
REM
REM Run started: Sun, 13 Sep 2020 02:47:13 +0100 in /lustre/scratch/uccabz1/launch_tmp/launcher_2020-09-12-10-45-06-779581
REM CASTEP 20.1 from code version af48c487+ pr-geom-scf-spinfix Tue Jun 2 15:39:59 2020 +0100
REM Functional Perdew Burke Ernzerhof Relativity Koelling-Harmon Dispersion off
REM Cut-off 340.0000 eV Grid scale 1.7500 Gmax 16.5316 1/A FBSC none
REM MP grid 3 3 2 Offset 0.000 0.000 0.000 No. kpts 6 Spacing 0.07
REM Total runtime: 67150.1 s
REM Overall efficiency: 98.5385 %
REM
REM
REM
REM compiler GCC version 4.9.2
REM options -cpp -iprefix /lustre/shared/ucl/apps/gcc/4.9.2/bin/../lib/gcc/x86_64-unknown-linux-gnu/4.9.2/ -mtune=corei7 -march=x86-64 -g -Og
REM COMMAND_LINE
REM seed 1194272560 1257936774 2037317644 613786503 -793199311 1611686482 -575319815 -1712124722 2131103156 -1811499188 518263265 1815042300
REM
REM S 3|1.8|5|6|7|30:31:32(qc=5)
REM O 2|1.5|12|13|15|20:21(qc=5)
REM Li 1|1.3|8|9|10|10U:20(qc=5)
REM Fe 3|2.2|2.0|1.0|8|9|10|40:41:32(qc=5)
REM 
CELL 1.54180    7.01095    7.07272   10.36716   80.35231   70.23690   60.28848
LATT -1
SFAC Li O  S  Fe 
Li     1  0.2671900000000 -0.0481280000000 -0.2840970000000 1.0   0.01
Li     1 -0.2190610000000 -0.0481280000000  0.2840950000000 1.0   0.01
Li     1  0.2330940000000  0.4518720000000 -0.2159050000000 1.0   0.01
Li     1  0.3150350000000  0.4518720000000  0.2159030000000 1.0   0.01
O      2  0.5576750000000  0.3284080000000 -0.2798520000000 1.0   0.32
O      2  0.1139170000000  0.3284080000000  0.2798500000000 1.0   0.32
O      2 -0.4721760000000 -0.1715920000000 -0.2201500000000 1.0   0.32
O      2 -0.3562310000000 -0.1715920000000  0.2201480000000 1.0   0.32
O      2 -0.5558520000000  0.1117050000000 -0.0000010000000 1.0   0.58
O      2 -0.3058520000000  0.6117050000000 -0.5000010000000 1.0   0.58
S      3 -0.0016720000000 -0.1781840000000 -0.1770620000000 1.0   0.29
S      3  0.1798570000000 -0.1781840000000  0.1770600000000 1.0   0.29
S      3  0.0712670000000  0.3218160000000 -0.3229400000000 1.0   0.29
S      3 -0.3930820000000  0.3218160000000  0.3229380000000 1.0   0.29
Fe     4  0.4179340000000 -0.1643670000000 -0.0230070000000 1.0   3.34
Fe     4 -0.2535650000000 -0.1643670000000  0.0230050000000 1.0   3.34
Fe     4 -0.3550720000000  0.3356330000000 -0.4769950000000 1.0   3.34
Fe     4  0.0194400000000  0.3356330000000  0.4769930000000 1.0   3.34
Fe     4 -0.3645190000000  0.0375770000000 -0.1951210000000 1.0   3.73
Fe     4  0.3269430000000  0.0375770000000  0.1951190000000 1.0   3.73
Fe     4  0.6903610000000 -0.4624230000000 -0.3048810000000 1.0   3.73
Fe     4 -0.2279370000000 -0.4624230000000  0.3048790000000 1.0   3.73
END
