TITL LFSO-Li4FeSO2-200910-085704-18694f 0.0087 262.134594 -5.68028934E+003 9.01848 9.18000 16 (P3) n - 1
REM
REM Run started: Thu, 10 Sep 2020 13:46:24 +0100 in /lustre/scratch/uccabz1/launch_tmp/launcher_2020-09-10-07-57-02-297154
REM CASTEP 20.1 from code version af48c487+ pr-geom-scf-spinfix Tue Jun 2 15:39:59 2020 +0100
REM Functional Perdew Burke Ernzerhof Relativity Koelling-Harmon Dispersion off
REM Cut-off 340.0000 eV Grid scale 1.7500 Gmax 16.5316 1/A FBSC none
REM MP grid 3 3 3 Offset 0.000 0.000 0.000 No. kpts 8 Spacing 0.07
REM Total runtime: 17442.9 s
REM Overall efficiency: 90 %
REM
REM
REM
REM compiler GCC version 4.9.2
REM options -cpp -iprefix /lustre/shared/ucl/apps/gcc/4.9.2/bin/../lib/gcc/x86_64-unknown-linux-gnu/4.9.2/ -mtune=corei7 -march=x86-64 -g -Og
REM COMMAND_LINE
REM seed 754416852 -1900280225 -1680972973 -683920871 -969544438 -669057734 504252123 742687685 -1589291399 126051340 1981709202 1198360575
REM
REM S 3|1.8|5|6|7|30:31:32(qc=5)
REM O 2|1.5|12|13|15|20:21(qc=5)
REM Li 1|1.3|8|9|10|10U:20(qc=5)
REM Fe 3|2.2|2.0|1.0|8|9|10|40:41:32(qc=5)
REM 
CELL 1.54180    6.75251    6.75251    6.63839   90.00000   90.00000  120.00000
LATT -1
SFAC Li O  S  Fe 
Li     1 -0.1658630000000  0.1627770000000 -0.0528990000000 1.0  -0.03
Li     1 -0.1627770000000 -0.3286400000000 -0.0528990000000 1.0  -0.03
Li     1  0.3286400000000  0.1658630000000 -0.0528990000000 1.0  -0.03
Li     1  0.1565580000000 -0.1397150000000  0.2365570000000 1.0  -0.04
Li     1  0.1397150000000  0.2962720000000  0.2365570000000 1.0  -0.04
Li     1 -0.2962720000000 -0.1565580000000  0.2365570000000 1.0  -0.04
Li     1 -0.3333330000000  0.3333330000000  0.0685780000000 1.0   0.04
Li     1  0.3333330000000 -0.3333330000000 -0.1025330000000 1.0   0.27
O      2  0.3824010000000  0.1936980000000  0.2248430000000 1.0   0.28
O      2 -0.1936980000000  0.1887020000000  0.2248430000000 1.0   0.28
O      2 -0.1887020000000 -0.3824010000000  0.2248430000000 1.0   0.28
O      2  0.3333330000000 -0.3333330000000  0.1814220000000 1.0   0.25
S      3 -0.3333330000000  0.3333330000000 -0.2692750000000 1.0   0.16
S      3  0.0000000000000 -0.0000000000000 -0.2265850000000 1.0  -0.00
Fe     4  0.3333330000000 -0.3333330000000 -0.5497610000000 1.0   3.80
Fe     4 -0.3333330000000  0.3333330000000  0.3842000000000 1.0   3.86
END
