TITL LFSO-Li6FeSO3-200909-220639-8c86ce -0.0808 405.106945 -7.35928622E+003 7.98287 8.17633 22 (C2) n - 1
REM
REM Run started: Thu, 10 Sep 2020 11:45:50 +0100 in /lustre/scratch/uccabz1/launch_tmp/launcher_2020-09-10-10-16-11-047780
REM CASTEP 20.1 from code version af48c487+ pr-geom-scf-spinfix Tue Jun 2 15:39:59 2020 +0100
REM Functional Perdew Burke Ernzerhof Relativity Koelling-Harmon Dispersion off
REM Cut-off 340.0000 eV Grid scale 1.7500 Gmax 16.5316 1/A FBSC none
REM MP grid 3 3 2 Offset 0.000 0.000 0.000 No. kpts 8 Spacing 0.07
REM Total runtime: 47939 s
REM Overall efficiency: 89.3077 %
REM
REM
REM
REM compiler GCC version 4.9.2
REM options -cpp -iprefix /lustre/shared/ucl/apps/gcc/4.9.2/bin/../lib/gcc/x86_64-unknown-linux-gnu/4.9.2/ -mtune=corei7 -march=x86-64 -g -Og
REM COMMAND_LINE
REM seed 1321890538 -187393596 2015167556 1113090880 -1753819328 -283629423 -806675195 -1741249574 1829887677 879327500 -785028677 2063087017
REM
REM S 3|1.8|5|6|7|30:31:32(qc=5)
REM O 2|1.5|12|13|15|20:21(qc=5)
REM Li 1|1.3|8|9|10|10U:20(qc=5)
REM Fe 3|2.2|2.0|1.0|8|9|10|40:41:32(qc=5)
REM 
CELL 1.54180    6.23904    7.60970   11.34716   70.40844   78.34593   52.95593
LATT -1
SFAC Li O  S  Fe 
Li     1 -0.4820260000000 -0.1584370000000 -0.4240270000000 1.0  -0.01
Li     1  0.4820260000000  0.5824630000000 -0.4240270000000 1.0  -0.01
Li     1 -0.7756610000000  0.1594400000000  0.1755640000000 1.0  -0.07
Li     1  0.7756610000000 -0.3350040000000  0.1755640000000 1.0  -0.07
Li     1  0.2210240000000 -0.2250250000000  0.2402110000000 1.0   0.01
Li     1 -0.2210240000000 -0.0151860000000  0.2402110000000 1.0   0.01
Li     1  0.0388440000000 -0.1232610000000 -0.2792030000000 1.0   0.02
Li     1 -0.0388440000000  0.4024650000000 -0.2792030000000 1.0   0.02
Li     1 -0.2548780000000 -0.6815030000000  0.1296020000000 1.0   0.01
Li     1  0.2548780000000  0.5519010000000  0.1296020000000 1.0   0.01
Li     1 -0.0435760000000 -0.4393420000000  0.4248150000000 1.0  -0.00
Li     1  0.0435760000000  0.0145270000000  0.4248150000000 1.0  -0.00
O      2  0.2041990000000 -0.1315270000000 -0.4245910000000 1.0   0.00
O      2 -0.2041990000000 -0.4438820000000 -0.4245910000000 1.0   0.00
O      2 -0.5147950000000  0.2353130000000  0.1269920000000 1.0   0.21
O      2  0.5147950000000 -0.3623050000000  0.1269920000000 1.0   0.21
O      2 -0.0055730000000 -0.3299560000000  0.2592790000000 1.0   0.01
O      2  0.0055730000000  0.0706760000000  0.2592790000000 1.0   0.01
S      3  0.1274070000000  0.2382010000000 -0.0736180000000 1.0   0.27
S      3 -0.1274070000000 -0.1645840000000 -0.0736180000000 1.0   0.27
Fe     4 -0.4695340000000  0.1534750000000 -0.0194930000000 1.0   3.53
Fe     4  0.4695340000000 -0.1339810000000 -0.0194930000000 1.0   3.53
END
