TITL LFSO-Li3FeS2O-200911-180100-19b747 0.0030 310.868333 -7.52491660E+003 -9.02745 9.72196 21 (P31) n - 1
REM
REM Run started: Sat, 12 Sep 2020 00:28:19 +0100 in /lustre/scratch/uccabz1/launch_tmp/launcher_2020-09-11-17-00-58-700946
REM CASTEP 20.1 from code version af48c487+ pr-geom-scf-spinfix Tue Jun 2 15:39:59 2020 +0100
REM Functional Perdew Burke Ernzerhof Relativity Koelling-Harmon Dispersion off
REM Cut-off 340.0000 eV Grid scale 1.7500 Gmax 16.5316 1/A FBSC none
REM MP grid 4 2 2 Offset 0.000 0.000 0.000 No. kpts 8 Spacing 0.07
REM Total runtime: 23366.5 s
REM Overall efficiency: 92.1111 %
REM
REM
REM
REM compiler GCC version 4.9.2
REM options -cpp -iprefix /lustre/shared/ucl/apps/gcc/4.9.2/bin/../lib/gcc/x86_64-unknown-linux-gnu/4.9.2/ -mtune=corei7 -march=x86-64 -g -Og
REM COMMAND_LINE
REM seed 920190381 1120263218 257820798 -1056735587 -1130597066 1135629413 244100526 -1200322848 -130405207 826645260 742856332 1182450591
REM
REM S 3|1.8|5|6|7|30:31:32(qc=5)
REM O 2|1.5|12|13|15|20:21(qc=5)
REM Li 1|1.3|8|9|10|10U:20(qc=5)
REM Fe 3|2.2|2.0|1.0|8|9|10|40:41:32(qc=5)
REM 
CELL 1.54180    4.17361    9.27400    9.27400  120.00000   90.00000   90.00000
LATT -1
SFAC Li O  S  Fe 
Li     1 -0.6092510000000  0.1337040000000  0.1674010000000 1.0   0.01
Li     1  0.0574160000000  0.0336980000000 -0.1337040000000 1.0   0.01
Li     1 -0.2759170000000 -0.1674010000000 -0.0336980000000 1.0   0.01
Li     1 -0.3466520000000 -0.1131390000000  0.5620140000000 1.0  -0.02
Li     1  0.3200150000000 -0.3248480000000  0.1131390000000 1.0  -0.02
Li     1 -0.0133180000000 -0.5620140000000  0.3248480000000 1.0  -0.02
Li     1 -0.1903800000000 -0.1799080000000  0.2430230000000 1.0   0.02
Li     1  0.4762870000000  0.4229310000000  0.1799080000000 1.0   0.02
Li     1  0.1429530000000 -0.2430230000000 -0.4229310000000 1.0   0.02
O      2  0.3360380000000  0.2081990000000  0.0067930000000 1.0  -0.21
O      2  0.0027050000000 -0.2014060000000 -0.2081990000000 1.0  -0.21
O      2 -0.3306290000000 -0.0067930000000  0.2014060000000 1.0  -0.21
S      3 -0.0676600000000 -0.4950130000000  0.1019960000000 1.0   0.00
S      3 -0.4009940000000  0.5970090000000  0.4950130000000 1.0   0.00
S      3  0.2656730000000 -0.1019960000000 -0.5970090000000 1.0   0.00
S      3  0.4094490000000 -0.4633890000000 -0.1769560000000 1.0   0.01
S      3  0.0761160000000  0.2864340000000  0.4633890000000 1.0   0.01
S      3 -0.2572180000000  0.1769560000000 -0.2864340000000 1.0   0.01
Fe     4  0.3114950000000  0.3211290000000 -0.1111370000000 1.0  -2.82
Fe     4 -0.0218380000000 -0.4322670000000 -0.3211290000000 1.0  -2.82
Fe     4 -0.3551720000000  0.1111370000000  0.4322670000000 1.0  -2.82
END
