TITL LFSO-Li4Fe3S2O3-201001-153121-edc5da -0.0229 198.218521 -5.30961845E+003 -9.02151 9.61590 12 (Fmm2) n - 1
REM
REM Run started: Thu, 01 Oct 2020 17:18:11 +0100 in /lustre/scratch/uccabz1/launch_tmp/launcher_2020-10-01-14-31-20-074956
REM CASTEP 20.1 from code version af48c487+ pr-geom-scf-spinfix Tue Jun 2 15:39:59 2020 +0100
REM Functional Perdew Burke Ernzerhof Relativity Koelling-Harmon Dispersion off
REM Cut-off 340.0000 eV Grid scale 1.7500 Gmax 16.5316 1/A FBSC none
REM MP grid 4 4 5 Offset 0.000 0.000 0.000 No. kpts 26 Spacing 0.07
REM Total runtime: 8895.54 s
REM Overall efficiency: 95.8333 %
REM
REM
REM
REM compiler GCC version 4.9.2
REM options -cpp -iprefix /lustre/shared/ucl/apps/gcc/4.9.2/bin/../lib/gcc/x86_64-unknown-linux-gnu/4.9.2/ -mtune=corei7 -march=x86-64 -g -Og
REM COMMAND_LINE
REM seed 560471631 1007366325 -254226677 522616228 1594576372 -1758192653 -1289057916 -42870131 1246261167 1472185961 1055518563 -304478772
REM
REM S 3|1.8|5|6|7|30:31:32(qc=5)
REM O 2|1.5|12|13|15|20:21(qc=5)
REM Li 1|1.3|8|9|10|10U:20(qc=5)
REM Fe 3|2.2|2.0|1.0|8|9|10|40:41:32(qc=5)
REM 
CELL 1.54180    9.09810    9.09810    5.00202  110.16307  110.16307  128.38804
LATT -1
SFAC Li O  S  Fe 
Li     1  0.1949100000000  0.0475010000000 -0.3608670000000 1.0   0.05
Li     1  0.4442230000000 -0.4083680000000 -0.3608670000000 1.0   0.05
Li     1  0.0475010000000  0.1949100000000 -0.3608670000000 1.0   0.05
Li     1 -0.4083680000000  0.4442230000000 -0.3608670000000 1.0   0.05
O      2 -0.1714810000000 -0.1714810000000  0.2188850000000 1.0  -0.18
O      2  0.3903650000000  0.3903650000000  0.2188850000000 1.0  -0.18
O      2  0.3048770000000  0.3048770000000 -0.3902460000000 1.0  -0.18
S      3  0.0381060000000 -0.4618940000000  0.0762120000000 1.0  -0.05
S      3 -0.4618940000000  0.0381060000000  0.0762120000000 1.0  -0.05
Fe     4 -0.4526140000000  0.0488370000000 -0.4037760000000 1.0  -3.06
Fe     4  0.0488370000000 -0.4526140000000 -0.4037760000000 1.0  -3.06
Fe     4 -0.4167070000000 -0.4167070000000  0.1665870000000 1.0  -2.49
END
