TITL LFSO-Li4Fe3S4O-200926-202413-6f6801 -0.0309 495.078802 -1.00834053E+004 -8.83224 14.2632 24 (P2) n - 1
REM
REM Run started: Sun, 27 Sep 2020 15:14:13 +0100 in /lustre/scratch/uccabz1/launch_tmp/launcher_2020-09-26-19-24-11-484881
REM CASTEP 20.1 from code version af48c487+ pr-geom-scf-spinfix Tue Jun 2 15:39:59 2020 +0100
REM Functional Perdew Burke Ernzerhof Relativity Koelling-Harmon Dispersion off
REM Cut-off 340.0000 eV Grid scale 1.7500 Gmax 16.5316 1/A FBSC none
REM MP grid 3 2 2 Offset 0.000 0.000 0.000 No. kpts 3 Spacing 0.07
REM Total runtime: 68002.4 s
REM Overall efficiency: 94.6667 %
REM
REM
REM
REM compiler GCC version 4.9.2
REM options -cpp -iprefix /lustre/shared/ucl/apps/gcc/4.9.2/bin/../lib/gcc/x86_64-unknown-linux-gnu/4.9.2/ -mtune=corei7 -march=x86-64 -g -Og
REM COMMAND_LINE
REM seed -1921324472 -2071986650 486223129 133386197 570867486 -944025549 1861788699 -1417556698 2102712936 -1121582685 2101390100 1769613001
REM
REM S 3|1.8|5|6|7|30:31:32(qc=5)
REM O 2|1.5|12|13|15|20:21(qc=5)
REM Li 1|1.3|8|9|10|10U:20(qc=5)
REM Fe 3|2.2|2.0|1.0|8|9|10|40:41:32(qc=5)
REM 
CELL 1.54180    6.46667    8.84971    9.06142   90.00000   90.00000  107.31092
LATT -1
SFAC Li O  S  Fe 
Li     1  0.1550720000000  0.3285860000000  0.0501360000000 1.0  -0.01
Li     1 -0.1550720000000 -0.3285860000000  0.0501360000000 1.0  -0.01
Li     1 -0.2075840000000  0.2395810000000 -0.1347020000000 1.0   0.00
Li     1  0.2075840000000 -0.2395810000000 -0.1347020000000 1.0   0.00
Li     1  0.2672090000000 -0.4484140000000 -0.4274410000000 1.0  -0.01
Li     1 -0.2672090000000  0.4484140000000 -0.4274410000000 1.0  -0.01
Li     1 -0.1684160000000 -0.0489770000000 -0.0331990000000 1.0   0.01
Li     1  0.1684160000000  0.0489770000000 -0.0331990000000 1.0   0.01
O      2  0.0289840000000 -0.1618460000000 -0.0343160000000 1.0  -0.03
O      2 -0.0289840000000  0.1618460000000 -0.0343160000000 1.0  -0.03
S      3  0.5601070000000  0.2383830000000  0.2383580000000 1.0  -0.11
S      3 -0.5601070000000 -0.2383830000000  0.2383580000000 1.0  -0.11
S      3 -0.2407480000000  0.0624710000000 -0.4092950000000 1.0  -0.10
S      3  0.2407480000000 -0.0624710000000 -0.4092950000000 1.0  -0.10
S      3 -0.3435540000000  0.4823810000000 -0.1677590000000 1.0  -0.02
S      3  0.3435540000000 -0.4823810000000 -0.1677590000000 1.0  -0.02
S      3 -0.0819290000000 -0.3464170000000  0.3911170000000 1.0  -0.03
S      3  0.0819290000000  0.3464170000000  0.3911170000000 1.0  -0.03
Fe     4 -0.1171640000000 -0.1382860000000 -0.4900360000000 1.0  -2.78
Fe     4  0.1171640000000  0.1382860000000 -0.4900360000000 1.0  -2.78
Fe     4  0.4952820000000  0.1315150000000 -0.5448060000000 1.0  -2.59
Fe     4 -0.4952820000000 -0.1315150000000 -0.5448060000000 1.0  -2.59
Fe     4 -0.4142300000000 -0.3794910000000  0.3617050000000 1.0   1.25
Fe     4  0.4142300000000  0.3794910000000  0.3617050000000 1.0   1.25
END
