TITL LFSO-Li2Fe4S4O-200911-200626-0384bf 0.0367 181.231463 -5.50569830E+003 1.87955 2.87788 11 (Cmm2) n - 1
REM
REM Run started: Fri, 11 Sep 2020 22:54:05 +0100 in /lustre/scratch/uccabz1/launch_tmp/launcher_2020-09-11-19-06-24-531413
REM CASTEP 20.1 from code version af48c487+ pr-geom-scf-spinfix Tue Jun 2 15:39:59 2020 +0100
REM Functional Perdew Burke Ernzerhof Relativity Koelling-Harmon Dispersion off
REM Cut-off 340.0000 eV Grid scale 1.7500 Gmax 16.5316 1/A FBSC none
REM MP grid 5 3 2 Offset 0.000 0.000 0.000 No. kpts 9 Spacing 0.07
REM Total runtime: 10118.2 s
REM Overall efficiency: 94.5 %
REM
REM
REM
REM compiler GCC version 4.9.2
REM options -cpp -iprefix /lustre/shared/ucl/apps/gcc/4.9.2/bin/../lib/gcc/x86_64-unknown-linux-gnu/4.9.2/ -mtune=corei7 -march=x86-64 -g -Og
REM COMMAND_LINE
REM seed -1840206378 503324818 -1109650612 127475385 -1445628074 203506489 1585322080 402137469 -58026668 1960423785 476434614 503966369
REM
REM S 3|1.8|5|6|7|30:31:32(qc=5)
REM O 2|1.5|12|13|15|20:21(qc=5)
REM Li 1|1.3|8|9|10|10U:20(qc=5)
REM Fe 3|2.2|2.0|1.0|8|9|10|40:41:32(qc=5)
REM 
CELL 1.54180    3.01585    6.73572    9.53605  110.68141   90.00000   90.00000
LATT -1
SFAC Li O  S  Fe 
Li     1  0.1526340000000  0.0642140000000  0.1284270000000 1.0  -0.02
Li     1  0.1526340000000 -0.0642140000000 -0.1284270000000 1.0  -0.02
O      2 -0.3543990000000  0.0000000000000  0.0000000000000 1.0  -0.03
S      3  0.1214810000000 -0.1370680000000  0.2953220000000 1.0  -0.10
S      3  0.1214810000000  0.1370680000000 -0.2953220000000 1.0  -0.10
S      3  0.1214810000000 -0.4323900000000 -0.2953220000000 1.0  -0.10
S      3  0.1214810000000  0.4323900000000  0.2953220000000 1.0  -0.10
Fe     4 -0.3785310000000  0.4180370000000  0.1355350000000 1.0   0.59
Fe     4 -0.3785310000000 -0.4180370000000 -0.1355350000000 1.0   0.59
Fe     4 -0.3785310000000  0.2825020000000 -0.1355350000000 1.0   0.59
Fe     4 -0.3785310000000 -0.2825020000000  0.1355350000000 1.0   0.59
END
