TITL LFSO-Li4Fe2SO4-200910-142500-0f22d6 -0.0693 152.989275 -4.58241835E+003 9.58009 9.62146 11 (P2) n - 1
REM
REM Run started: Thu, 10 Sep 2020 15:14:32 +0100 in /lustre/scratch/uccabz1/launch_tmp/launcher_2020-09-10-13-24-58-992563
REM CASTEP 20.1 from code version af48c487+ pr-geom-scf-spinfix Tue Jun 2 15:39:59 2020 +0100
REM Functional Perdew Burke Ernzerhof Relativity Koelling-Harmon Dispersion off
REM Cut-off 340.0000 eV Grid scale 1.7500 Gmax 16.5316 1/A FBSC none
REM MP grid 5 2 3 Offset 0.000 0.000 0.000 No. kpts 10 Spacing 0.07
REM Total runtime: 3501.44 s
REM Overall efficiency: 80.4286 %
REM
REM
REM
REM compiler GCC version 4.9.2
REM options -cpp -iprefix /lustre/shared/ucl/apps/gcc/4.9.2/bin/../lib/gcc/x86_64-unknown-linux-gnu/4.9.2/ -mtune=corei7 -march=x86-64 -g -Og
REM COMMAND_LINE
REM seed 169775027 -2101000853 1319871793 -1285378344 -1947634262 2094818075 243470337 1857948968 -2074276145 1686138330 1587732271 -1739141891
REM
REM S 3|1.8|5|6|7|30:31:32(qc=5)
REM O 2|1.5|12|13|15|20:21(qc=5)
REM Li 1|1.3|8|9|10|10U:20(qc=5)
REM Fe 3|2.2|2.0|1.0|8|9|10|40:41:32(qc=5)
REM 
CELL 1.54180    3.21783    9.03001    5.39553   90.00000   90.00000  102.62215
LATT -1
SFAC Li O  S  Fe 
Li     1 -0.3092330000000  0.4102610000000  0.1225810000000 1.0  -0.03
Li     1  0.3092330000000 -0.4102610000000  0.1225810000000 1.0  -0.03
Li     1 -0.4837250000000 -0.2489740000000 -0.2174140000000 1.0   0.01
Li     1  0.4837250000000  0.2489740000000 -0.2174140000000 1.0   0.01
O      2 -0.4235950000000  0.2501430000000  0.4392960000000 1.0   0.44
O      2  0.4235950000000 -0.2501430000000  0.4392960000000 1.0   0.44
O      2  0.1447060000000  0.3405760000000  0.0141660000000 1.0   0.34
O      2 -0.1447060000000 -0.3405760000000  0.0141660000000 1.0   0.34
S      3  0.5000000000000  0.0000000000000  0.0578460000000 1.0   0.32
Fe     4 -0.0419250000000 -0.1886220000000  0.2658070000000 1.0   3.87
Fe     4  0.0419250000000  0.1886220000000  0.2658070000000 1.0   3.87
END
