TITL LFSO-Li4FeS2O-200910-115552-f068fd -0.0097 332.982248 -5.41720370E+003 7.99894 8.15437 16 (Pma2) n - 1
REM
REM Run started: Thu, 10 Sep 2020 17:16:34 +0100 in /lustre/scratch/uccabz1/launch_tmp/launcher_2020-09-10-10-55-49-807788
REM CASTEP 20.1 from code version af48c487+ pr-geom-scf-spinfix Tue Jun 2 15:39:59 2020 +0100
REM Functional Perdew Burke Ernzerhof Relativity Koelling-Harmon Dispersion off
REM Cut-off 340.0000 eV Grid scale 1.7500 Gmax 16.5316 1/A FBSC none
REM MP grid 4 2 3 Offset 0.000 0.000 0.000 No. kpts 6 Spacing 0.07
REM Total runtime: 22128.6 s
REM Overall efficiency: 95.8333 %
REM
REM
REM
REM compiler GCC version 4.9.2
REM options -cpp -iprefix /lustre/shared/ucl/apps/gcc/4.9.2/bin/../lib/gcc/x86_64-unknown-linux-gnu/4.9.2/ -mtune=corei7 -march=x86-64 -g -Og
REM COMMAND_LINE
REM seed 673292315 -886295828 -884435031 810971615 970543365 478075361 -897389925 1464145079 -1857427065 1454208059 1259747961 1862137295
REM
REM S 3|1.8|5|6|7|30:31:32(qc=5)
REM O 2|1.5|12|13|15|20:21(qc=5)
REM Li 1|1.3|8|9|10|10U:20(qc=5)
REM Fe 3|2.2|2.0|1.0|8|9|10|40:41:32(qc=5)
REM 
CELL 1.54180    3.87654   12.50923    6.86668   90.00000   89.87969   90.00000
LATT -1
SFAC Li O  S  Fe 
Li     1  0.2513160000000  0.2819860000000  0.3630550000000 1.0  -0.01
Li     1 -0.2513160000000  0.2819860000000 -0.3630550000000 1.0  -0.01
Li     1 -0.2487750000000 -0.0976700000000 -0.1133200000000 1.0   0.00
Li     1  0.2487750000000 -0.0976700000000  0.1133200000000 1.0   0.00
Li     1  0.2488090000000 -0.2313030000000  0.3896610000000 1.0   0.01
Li     1 -0.2488090000000 -0.2313030000000 -0.3896610000000 1.0   0.01
Li     1 -0.2511980000000 -0.3488730000000  0.1379660000000 1.0   0.03
Li     1  0.2511980000000 -0.3488730000000 -0.1379660000000 1.0   0.03
O      2 -0.2491970000000  0.3201700000000  0.3430040000000 1.0   0.37
O      2  0.2491970000000  0.3201700000000 -0.3430040000000 1.0   0.37
S      3 -0.2516770000000 -0.1574700000000  0.2437720000000 1.0   0.01
S      3  0.2516770000000 -0.1574700000000 -0.2437720000000 1.0   0.01
S      3 -0.2491200000000 -0.4252260000000 -0.2718530000000 1.0   0.15
S      3  0.2491200000000 -0.4252260000000  0.2718530000000 1.0   0.15
Fe     4  0.2477160000000  0.4638970000000 -0.3673850000000 1.0   3.43
Fe     4 -0.2477160000000  0.4638970000000  0.3673850000000 1.0   3.43
END
