TITL LFSO-Li2Fe3S3O-200912-165614-f76403 0.0024 278.945533 -8.68081367E+003 18.0109 18.4193 18 (P3) n - 1
REM
REM Run started: Sun, 13 Sep 2020 05:26:41 +0100 in /lustre/scratch/uccabz1/launch_tmp/launcher_2020-09-12-15-56-11-405163
REM CASTEP 20.1 from code version af48c487+ pr-geom-scf-spinfix Tue Jun 2 15:39:59 2020 +0100
REM Functional Perdew Burke Ernzerhof Relativity Koelling-Harmon Dispersion off
REM Cut-off 340.0000 eV Grid scale 1.7500 Gmax 16.5316 1/A FBSC none
REM MP grid 4 2 2 Offset 0.000 0.000 0.000 No. kpts 8 Spacing 0.07
REM Total runtime: 49139.1 s
REM Overall efficiency: 93.3846 %
REM
REM
REM
REM compiler GCC version 4.9.2
REM options -cpp -iprefix /lustre/shared/ucl/apps/gcc/4.9.2/bin/../lib/gcc/x86_64-unknown-linux-gnu/4.9.2/ -mtune=corei7 -march=x86-64 -g -Og
REM COMMAND_LINE
REM seed -1744353449 -122433544 2053134823 299256823 1779685332 717287870 -1071772932 -591460847 -1896061234 -1520244350 -519723086 -757124734
REM
REM S 3|1.8|5|6|7|30:31:32(qc=5)
REM O 2|1.5|12|13|15|20:21(qc=5)
REM Li 1|1.3|8|9|10|10U:20(qc=5)
REM Fe 3|2.2|2.0|1.0|8|9|10|40:41:32(qc=5)
REM 
CELL 1.54180    3.53760    9.54201    9.54201  120.00000   90.00000   90.00000
LATT -1
SFAC Li O  S  Fe 
Li     1 -0.3739250000000  0.2991600000000 -0.1646690000000 1.0   0.08
Li     1 -0.3739250000000 -0.4638290000000 -0.2991600000000 1.0   0.08
Li     1 -0.3739250000000  0.1646690000000  0.4638290000000 1.0   0.08
Li     1  0.2220410000000 -0.3333330000000  0.3333330000000 1.0  -0.13
O      2  0.7216000000000 -0.3333330000000  0.3333330000000 1.0   0.23
O      2  0.2271140000000  0.0000000000000 -0.0000000000000 1.0   0.14
S      3 -0.2725070000000  0.3009740000000  0.0749610000000 1.0   0.14
S      3 -0.2725070000000 -0.2260130000000 -0.3009740000000 1.0   0.14
S      3 -0.2725070000000 -0.0749610000000  0.2260130000000 1.0   0.14
S      3  0.2143530000000  0.5510670000000 -0.0826020000000 1.0   0.14
S      3  0.2143530000000 -0.6336690000000 -0.5510670000000 1.0   0.14
S      3  0.2143530000000  0.0826020000000  0.6336690000000 1.0   0.14
Fe     4 -0.2790600000000 -0.1082390000000  0.5468120000000 1.0   3.16
Fe     4 -0.2790600000000 -0.3449490000000  0.1082390000000 1.0   3.16
Fe     4 -0.2790600000000 -0.5468120000000  0.3449490000000 1.0   3.16
Fe     4 -0.7735700000000 -0.1643650000000  0.0583830000000 1.0   2.40
Fe     4 -0.7735700000000  0.2227480000000  0.1643650000000 1.0   2.40
Fe     4 -0.7735700000000 -0.0583830000000 -0.2227480000000 1.0   2.40
END
