TITL LFSO-Li4FeSO2-200910-090752-b11f78 0.1306 473.432066 -8.52788358E+003 11.9984 12.4846 24 (Cm) n - 1
REM
REM Run started: Fri, 11 Sep 2020 08:59:52 +0100 in /lustre/scratch/uccabz1/launch_tmp/launcher_2020-09-10-08-07-50-627214
REM CASTEP 20.1 from code version af48c487+ pr-geom-scf-spinfix Tue Jun 2 15:39:59 2020 +0100
REM Functional Perdew Burke Ernzerhof Relativity Koelling-Harmon Dispersion off
REM Cut-off 340.0000 eV Grid scale 1.7500 Gmax 16.5316 1/A FBSC none
REM MP grid 2 3 2 Offset 0.000 0.000 0.000 No. kpts 6 Spacing 0.07
REM Total runtime: 92615 s
REM Overall efficiency: 91.4167 %
REM
REM
REM
REM compiler GCC version 4.9.2
REM options -cpp -iprefix /lustre/shared/ucl/apps/gcc/4.9.2/bin/../lib/gcc/x86_64-unknown-linux-gnu/4.9.2/ -mtune=corei7 -march=x86-64 -g -Og
REM COMMAND_LINE
REM seed -998313975 -1466653363 -1158672447 777519959 -2113096062 794766938 1537060255 -553393643 1725445486 -28855602 180890192 814357069
REM
REM S 3|1.8|5|6|7|30:31:32(qc=5)
REM O 2|1.5|12|13|15|20:21(qc=5)
REM Li 1|1.3|8|9|10|10U:20(qc=5)
REM Fe 3|2.2|2.0|1.0|8|9|10|40:41:32(qc=5)
REM 
CELL 1.54180    8.88740    6.17569   10.77322  113.14070  119.10354   75.05597
LATT -1
SFAC Li O  S  Fe 
Li     1  0.4623630000000 -0.2294230000000  0.3141170000000 1.0  -0.06
Li     1  0.1482450000000 -0.5435410000000 -0.3141170000000 1.0  -0.06
Li     1 -0.4159890000000  0.1173700000000 -0.5530810000000 1.0  -0.02
Li     1  0.1370920000000  0.6704510000000  0.5530810000000 1.0  -0.02
Li     1 -0.1619170000000 -0.0672890000000 -0.4498720000000 1.0   0.02
Li     1  0.2879550000000  0.3825830000000  0.4498720000000 1.0   0.02
Li     1 -0.2140900000000  0.2535940000000 -0.2015070000000 1.0  -0.05
Li     1 -0.0125830000000  0.4551020000000  0.2015070000000 1.0  -0.05
Li     1  0.4152890000000  0.1605550000000 -0.3833760000000 1.0  -0.03
Li     1 -0.2013350000000  0.5439310000000  0.3833760000000 1.0  -0.03
Li     1  0.5013710000000 -0.3641410000000 -0.2163140000000 1.0   0.01
Li     1 -0.2823150000000 -0.1478270000000  0.2163140000000 1.0   0.01
O      2  0.1460440000000 -0.3622650000000  0.3720630000000 1.0   0.24
O      2 -0.2260200000000  0.2656720000000 -0.3720630000000 1.0   0.24
O      2 -0.3290770000000 -0.1785100000000  0.3523310000000 1.0   0.01
O      2  0.3185920000000 -0.5308410000000 -0.3523310000000 1.0   0.01
O      2 -0.0492260000000 -0.3567340000000 -0.4023610000000 1.0   0.22
O      2  0.3531350000000  0.0456270000000  0.4023610000000 1.0   0.22
S      3 -0.1053780000000  0.1386890000000  0.2446620000000 1.0   0.20
S      3 -0.3500410000000 -0.1059730000000 -0.2446620000000 1.0   0.20
S      3 -0.2874930000000 -0.5037580000000  0.0000000000000 1.0   0.25
Fe     4 -0.1920780000000  0.5619150000000 -0.3487200000000 1.0   3.55
Fe     4  0.1566420000000 -0.0893650000000  0.3487200000000 1.0   3.55
Fe     4 -0.2520800000000  0.1217370000000  0.0000000000000 1.0   3.55
END
