TITL LFSO-Li2Fe2SO2-200912-221857-47ed57 0.0933 84.780332 -3.30470834E+003 -0.144517E-03 0.167431E-02 7 (R3m) n - 1
REM
REM Run started: Sun, 13 Sep 2020 00:22:03 +0100 in /lustre/scratch/uccabz1/launch_tmp/launcher_2020-09-12-21-18-56-090220
REM CASTEP 20.1 from code version af48c487+ pr-geom-scf-spinfix Tue Jun 2 15:39:59 2020 +0100
REM Functional Perdew Burke Ernzerhof Relativity Koelling-Harmon Dispersion off
REM Cut-off 340.0000 eV Grid scale 1.7500 Gmax 16.5316 1/A FBSC none
REM MP grid 6 6 2 Offset 0.000 0.000 0.000 No. kpts 21 Spacing 0.07
REM Total runtime: 8462.07 s
REM Overall efficiency: 95.3333 %
REM
REM
REM
REM compiler GCC version 4.9.2
REM options -cpp -iprefix /lustre/shared/ucl/apps/gcc/4.9.2/bin/../lib/gcc/x86_64-unknown-linux-gnu/4.9.2/ -mtune=corei7 -march=x86-64 -g -Og
REM COMMAND_LINE
REM seed 1263459201 1925115652 662413283 268488720 -106907913 -2001827646 -309976726 767349881 -1162011046 -796450022 94330171 860215138
REM
REM S 3|1.8|5|6|7|30:31:32(qc=5)
REM O 2|1.5|12|13|15|20:21(qc=5)
REM Li 1|1.3|8|9|10|10U:20(qc=5)
REM Fe 3|2.2|2.0|1.0|8|9|10|40:41:32(qc=5)
REM 
CELL 1.54180    3.22372    3.22372    9.60209   80.33625   80.33625   60.00000
LATT -1
SFAC Li O  S  Fe 
Li     1 -0.0701280000000 -0.0701280000000  0.2103840000000 1.0
Li     1 -0.3368680000000 -0.3368680000000  0.0106030000000 1.0
O      2  0.4279820000000  0.4279820000000 -0.2839470000000 1.0
O      2 -0.0081240000000 -0.0081240000000  0.0243720000000 1.0
S      3  0.1993500000000  0.1993500000000  0.4019510000000 1.0
Fe     4 -0.5067060000000 -0.5067060000000  0.5201180000000 1.0
Fe     4 -0.2437980000000 -0.2437980000000 -0.2686050000000 1.0
END
