TITL LFSO-Li2Fe2S2O-200913-132542-67b826 0.3651 313.376354 -9.50066755E+003 2.84159 4.80073 21 (P3) n - 1
REM
REM Run started: Tue, 15 Sep 2020 02:16:36 +0100 in /lustre/scratch/uccabz1/launch_tmp/launcher_2020-09-14-05-24-59-333410
REM CASTEP 20.1 from code version af48c487+ pr-geom-scf-spinfix Tue Jun 2 15:39:59 2020 +0100
REM Functional Perdew Burke Ernzerhof Relativity Koelling-Harmon Dispersion off
REM Cut-off 340.0000 eV Grid scale 1.7500 Gmax 16.5316 1/A FBSC none
REM MP grid 4 4 2 Offset 0.000 0.000 0.000 No. kpts 16 Spacing 0.07
REM Total runtime: 117040 s
REM Overall efficiency: 98.6429 %
REM
REM
REM
REM compiler GCC version 4.9.2
REM options -cpp -iprefix /lustre/shared/ucl/apps/gcc/4.9.2/bin/../lib/gcc/x86_64-unknown-linux-gnu/4.9.2/ -mtune=corei7 -march=x86-64 -g -Og
REM COMMAND_LINE
REM seed 973912197 1194910318 -177740192 -2038707200 1636337110 -896151219 1412684071 -253298161 -379708483 -1981329429 -1722449801 -1425560469
REM
REM S 3|1.8|5|6|7|30:31:32(qc=5)
REM O 2|1.5|12|13|15|20:21(qc=5)
REM Li 1|1.3|8|9|10|10U:20(qc=5)
REM Fe 3|2.2|2.0|1.0|8|9|10|40:41:32(qc=5)
REM 
CELL 1.54180    5.41759    5.41759   12.32889   90.00000   90.00000  120.00000
LATT -1
SFAC Li O  S  Fe 
Li     1  0.0189580000000  0.3200160000000 -0.3517190000000 1.0  -0.07
Li     1  0.3010590000000 -0.0189580000000 -0.3517190000000 1.0  -0.07
Li     1 -0.3200160000000 -0.3010590000000 -0.3517190000000 1.0  -0.07
Li     1 -0.0528910000000 -0.3189670000000 -0.1809070000000 1.0   0.00
Li     1 -0.2660760000000  0.0528910000000 -0.1809070000000 1.0   0.00
Li     1  0.3189670000000  0.2660760000000 -0.1809070000000 1.0   0.00
O      2 -0.3320150000000  0.0103940000000  0.1604620000000 1.0  -0.04
O      2  0.3424090000000  0.3320150000000  0.1604620000000 1.0  -0.04
O      2 -0.0103940000000 -0.3424090000000  0.1604620000000 1.0  -0.04
S      3 -0.4129510000000 -0.4073290000000 -0.0612450000000 1.0  -0.00
S      3  0.0056230000000  0.4129510000000 -0.0612450000000 1.0  -0.00
S      3  0.4073290000000 -0.0056230000000 -0.0612450000000 1.0  -0.00
S      3  0.0037770000000 -0.3487180000000  0.2823290000000 1.0  -0.03
S      3 -0.3524950000000 -0.0037770000000  0.2823290000000 1.0  -0.03
S      3  0.3487180000000  0.3524950000000  0.2823290000000 1.0  -0.03
Fe     4  0.2971260000000  0.0132920000000  0.3870780000000 1.0   0.76
Fe     4 -0.2838330000000 -0.2971260000000  0.3870780000000 1.0   0.76
Fe     4 -0.0132920000000  0.2838330000000  0.3870780000000 1.0   0.76
Fe     4  0.3783400000000  0.4231160000000 -0.4967340000000 1.0   0.32
Fe     4  0.0447760000000 -0.3783400000000 -0.4967340000000 1.0   0.32
Fe     4 -0.4231160000000 -0.0447760000000 -0.4967340000000 1.0   0.32
END
