TITL LFSO-Li2FeSO-200912-062930-453a27 0.0237 404.875632 -8.01814676E+003 12.7428 13.3271 20 (P3) n - 1
REM
REM Run started: Sat, 12 Sep 2020 22:23:59 +0100 in /lustre/scratch/uccabz1/launch_tmp/launcher_2020-09-12-05-29-28-091289
REM CASTEP 20.1 from code version af48c487+ pr-geom-scf-spinfix Tue Jun 2 15:39:59 2020 +0100
REM Functional Perdew Burke Ernzerhof Relativity Koelling-Harmon Dispersion off
REM Cut-off 340.0000 eV Grid scale 1.7500 Gmax 16.5316 1/A FBSC none
REM MP grid 3 2 2 Offset 0.000 0.000 0.000 No. kpts 6 Spacing 0.07
REM Total runtime: 57439.3 s
REM Overall efficiency: 95.6364 %
REM
REM
REM
REM compiler GCC version 4.9.2
REM options -cpp -iprefix /lustre/shared/ucl/apps/gcc/4.9.2/bin/../lib/gcc/x86_64-unknown-linux-gnu/4.9.2/ -mtune=corei7 -march=x86-64 -g -Og
REM COMMAND_LINE
REM seed -573103714 -1219352843 -181166231 8557720 -1583524416 -796837471 -1652625883 1313786689 -566469472 -2098185770 -1821628637 -343364705
REM
REM S 3|1.8|5|6|7|30:31:32(qc=5)
REM O 2|1.5|12|13|15|20:21(qc=5)
REM Li 1|1.3|8|9|10|10U:20(qc=5)
REM Fe 3|2.2|2.0|1.0|8|9|10|40:41:32(qc=5)
REM 
CELL 1.54180    6.42727    8.52869    8.52869  120.00000   90.00000   90.00000
LATT -1
SFAC Li O  S  Fe 
Li     1  0.2061430000000  0.0736890000000 -0.4362690000000 1.0  -0.01
Li     1  0.2061430000000  0.4362690000000  0.5099580000000 1.0  -0.01
Li     1  0.2061430000000 -0.5099580000000 -0.0736890000000 1.0  -0.01
Li     1  0.3178020000000 -0.1347250000000  0.0726550000000 1.0   0.01
Li     1  0.3178020000000 -0.0726550000000 -0.2073810000000 1.0   0.01
Li     1  0.3178020000000  0.2073810000000  0.1347250000000 1.0   0.01
Li     1  0.5898190000000 -0.3333330000000  0.3333330000000 1.0  -0.05
Li     1 -0.2566320000000 -0.0000000000000 -0.0000000000000 1.0  -0.04
O      2  0.3182220000000 -0.1466800000000  0.5289550000000 1.0   0.16
O      2  0.3182220000000 -0.5289550000000  0.3243650000000 1.0   0.16
O      2  0.3182220000000 -0.3243650000000  0.1466800000000 1.0   0.16
O      2 -0.5316880000000 -0.0000000000000 -0.0000000000000 1.0   0.06
S      3  0.0516240000000  0.2002800000000 -0.1118150000000 1.0   0.21
S      3  0.0516240000000  0.1118150000000  0.3120940000000 1.0   0.21
S      3  0.0516240000000 -0.3120940000000 -0.2002800000000 1.0   0.21
S      3 -0.5010450000000  0.3333330000000 -0.3333330000000 1.0   0.10
Fe     4 -0.2142850000000  0.5196080000000 -0.2566390000000 1.0   3.21
Fe     4 -0.2142850000000  0.2566390000000 -0.2237520000000 1.0   3.21
Fe     4 -0.2142850000000  0.2237520000000 -0.5196080000000 1.0   3.21
Fe     4  0.2438240000000 -0.3333330000000  0.3333330000000 1.0   1.93
END
