TITL LFSO-Li3Fe3SO5-201001-231153-a3cc62 0.0223 205.119330 -5.68045384E+003 0.978442 4.05746 12 (Imm2) n - 1
REM
REM Run started: Fri, 02 Oct 2020 03:26:07 +0100 in /lustre/scratch/uccabz1/launch_tmp/launcher_2020-10-01-22-11-51-806531
REM CASTEP 20.1 from code version af48c487+ pr-geom-scf-spinfix Tue Jun 2 15:39:59 2020 +0100
REM Functional Perdew Burke Ernzerhof Relativity Koelling-Harmon Dispersion off
REM Cut-off 340.0000 eV Grid scale 1.7500 Gmax 16.5316 1/A FBSC none
REM MP grid 4 3 3 Offset 0.000 0.000 0.000 No. kpts 12 Spacing 0.07
REM Total runtime: 16083.6 s
REM Overall efficiency: 96.1111 %
REM
REM
REM
REM compiler GCC version 4.9.2
REM options -cpp -iprefix /lustre/shared/ucl/apps/gcc/4.9.2/bin/../lib/gcc/x86_64-unknown-linux-gnu/4.9.2/ -mtune=corei7 -march=x86-64 -g -Og
REM COMMAND_LINE
REM seed -59147108 666059858 -830984269 274632513 -1093528184 479890565 -475576161 -1367939849 -425675598 -1519085167 1737787192 211353561
REM
REM S 3|1.8|5|6|7|30:31:32(qc=5)
REM O 2|1.5|12|13|15|20:21(qc=5)
REM Li 1|1.3|8|9|10|10U:20(qc=5)
REM Fe 3|2.2|2.0|1.0|8|9|10|40:41:32(qc=5)
REM 
CELL 1.54180    6.37270    6.70336    6.70336   93.86649   61.61877   61.61877
LATT -1
SFAC Li O  S  Fe 
Li     1 -0.0741230000000 -0.2056940000000  0.3539400000000 1.0   0.03
Li     1 -0.0741230000000  0.3539400000000 -0.2056940000000 1.0   0.03
Li     1  0.3884320000000 -0.3884320000000 -0.3884320000000 1.0   0.01
O      2  0.2907430000000 -0.3995900000000  0.3153230000000 1.0   0.16
O      2 -0.2064760000000  0.3153230000000 -0.3995900000000 1.0   0.16
O      2  0.2907430000000  0.3153230000000 -0.3995900000000 1.0   0.16
O      2 -0.2064760000000 -0.3995900000000  0.3153230000000 1.0   0.16
O      2  0.1140400000000 -0.1140400000000 -0.1140400000000 1.0  -0.18
S      3  0.4088290000000  0.0911710000000  0.0911710000000 1.0  -0.10
Fe     4  0.4090500000000  0.3232300000000  0.3232300000000 1.0   0.91
Fe     4 -0.0555100000000  0.3232300000000  0.3232300000000 1.0   0.91
Fe     4 -0.1315200000000  0.1315200000000  0.1315200000000 1.0  -1.28
END
