TITL LFSO-Li2Fe3S2O2-200921-010945-36feab 1.0874 326.040076 -8.94321023E+003 5.20794 16.5509 18 (Pm) n - 1
REM
REM Run started: Mon, 21 Sep 2020 19:05:08 +0100 in /lustre/scratch/uccabz1/launch_tmp/launcher_2020-09-21-16-27-25-380974
REM CASTEP 20.1 from code version af48c487+ pr-geom-scf-spinfix Tue Jun 2 15:39:59 2020 +0100
REM Functional Perdew Burke Ernzerhof Relativity Koelling-Harmon Dispersion off
REM Cut-off 340.0000 eV Grid scale 1.7500 Gmax 16.5316 1/A FBSC none
REM MP grid 4 3 2 Offset 0.000 0.000 0.000 No. kpts 6 Spacing 0.07
REM Total runtime: 50969.3 s
REM Overall efficiency: 98.125 %
REM
REM
REM
REM compiler GCC version 4.9.2
REM options -cpp -iprefix /lustre/shared/ucl/apps/gcc/4.9.2/bin/../lib/gcc/x86_64-unknown-linux-gnu/4.9.2/ -mtune=corei7 -march=x86-64 -g -Og
REM COMMAND_LINE
REM seed 1615877378 -1897928621 -1899387630 -12257503 -1668472475 1705836988 1412775530 -888298677 -2026792760 1496868259 -173466946 -656105160
REM
REM S 3|1.8|5|6|7|30:31:32(qc=5)
REM O 2|1.5|12|13|15|20:21(qc=5)
REM Li 1|1.3|8|9|10|10U:20(qc=5)
REM Fe 3|2.2|2.0|1.0|8|9|10|40:41:32(qc=5)
REM 
CELL 1.54180    5.30376    6.63413   10.77574   90.00000   90.00000  120.69279
LATT -1
SFAC Li O  S  Fe 
Li     1  0.1624800000000  0.0235090000000  0.3061330000000 1.0  -0.03
Li     1  0.1624800000000  0.0235090000000 -0.3061330000000 1.0  -0.03
Li     1  0.4670250000000 -0.0868480000000 -0.1645090000000 1.0  -0.04
Li     1  0.4670250000000 -0.0868480000000  0.1645090000000 1.0  -0.04
O      2  0.4616320000000  0.1931370000000  0.1687250000000 1.0  -0.32
O      2  0.4616320000000  0.1931370000000 -0.1687250000000 1.0  -0.32
O      2 -0.5316240000000 -0.0388670000000 -0.3729550000000 1.0   0.17
O      2 -0.5316240000000 -0.0388670000000  0.3729550000000 1.0   0.17
S      3 -0.1718190000000 -0.2174630000000 -0.1499470000000 1.0  -0.07
S      3 -0.1718190000000 -0.2174630000000  0.1499470000000 1.0  -0.07
S      3  0.1217280000000  0.4036390000000  0.2590980000000 1.0   0.04
S      3  0.1217280000000  0.4036390000000 -0.2590980000000 1.0   0.04
Fe     4 -0.2428350000000  0.2735650000000  0.3949800000000 1.0   2.86
Fe     4 -0.2428350000000  0.2735650000000 -0.3949800000000 1.0   2.86
Fe     4 -0.4416950000000  0.4522020000000  0.2326000000000 1.0  -2.32
Fe     4 -0.4416950000000  0.4522020000000 -0.2326000000000 1.0  -2.32
Fe     4  0.3534910000000  0.6635510000000  0.4022060000000 1.0   2.33
Fe     4  0.3534910000000  0.6635510000000 -0.4022060000000 1.0   2.33
END
