TITL LFSO-Li4Fe3S2O3-200928-145835-51f0b6 0.0262 341.278578 -1.06244821E+004 23.8437 24.2464 24 (R3) n - 1
REM
REM Run started: Tue, 29 Sep 2020 23:27:45 +0100 in /scratch/scratch/uccabz1/launch_tmp/launcher_2020-09-28-13-58-33-891134
REM CASTEP 19.11| from code version Version unavailable
REM Functional Perdew Burke Ernzerhof Relativity Koelling-Harmon Dispersion off
REM Cut-off 340.0000 eV Grid scale 1.7500 Gmax 16.5316 1/A FBSC none
REM MP grid 3 3 3 Offset 0.000 0.000 0.000 No. kpts 6 Spacing 0.07
REM Total runtime: 64300.5 s
REM Overall efficiency: 98.5556 %
REM
REM
REM
REM compiler GCC version 4.9.2
REM options -cpp -iprefix /scratch/UCL/applications/gcc/4.9.2/bin/../lib/gcc/x86_64-unknown-linux-gnu/4.9.2/ -mtune=corei7 -march=x86-64 -g -O2
REM COMMAND_LINE
REM seed -1712526688 -534316759 -864579041 1290239832 -565723841 -499909438 -1564835677 -466353674 322234522 -863909150 1261536771 1995611849
REM
REM S 3|1.8|5|6|7|30:31:32(qc=5)
REM O 2|1.5|12|13|15|20:21(qc=5)
REM Li 1|1.3|8|9|10|10U:20(qc=5)
REM Fe 3|2.2|2.0|1.0|8|9|10|40:41:32(qc=5)
REM 
CELL 1.54180   10.12072   10.12072   10.12072   37.29979   37.29979   37.29979
LATT -1
SFAC Li O  S  Fe 
Li     1  0.2690910000000  0.0639100000000 -0.3943410000000 1.0  -0.01
Li     1 -0.3943410000000  0.2690910000000  0.0639100000000 1.0  -0.01
Li     1  0.0639100000000 -0.3943410000000  0.2690910000000 1.0  -0.01
Li     1 -0.4152730000000 -0.0975900000000  0.2778160000000 1.0   0.04
Li     1  0.2778160000000 -0.4152730000000 -0.0975900000000 1.0   0.04
Li     1 -0.0975900000000  0.2778160000000 -0.4152730000000 1.0   0.04
Li     1 -0.3244460000000 -0.3244460000000 -0.3244460000000 1.0  -0.04
Li     1 -0.5097780000000 -0.5097780000000 -0.5097780000000 1.0  -0.03
O      2  0.3168790000000 -0.2227200000000  0.2651160000000 1.0   0.35
O      2  0.2651160000000  0.3168790000000 -0.2227200000000 1.0   0.35
O      2 -0.2227200000000  0.2651160000000  0.3168790000000 1.0   0.35
O      2 -0.3913770000000 -0.0015160000000  0.3816600000000 1.0   0.21
O      2  0.3816600000000 -0.3913770000000 -0.0015160000000 1.0   0.21
O      2 -0.0015160000000  0.3816600000000 -0.3913770000000 1.0   0.21
S      3  0.2063660000000 -0.0976280000000 -0.4371560000000 1.0   0.25
S      3 -0.4371560000000  0.2063660000000 -0.0976280000000 1.0   0.25
S      3 -0.0976280000000 -0.4371560000000  0.2063660000000 1.0   0.25
S      3 -0.2329880000000 -0.2329880000000 -0.2329880000000 1.0   0.33
Fe     4 -0.3814850000000  0.1515180000000  0.4077320000000 1.0   3.40
Fe     4  0.4077320000000 -0.3814850000000  0.1515180000000 1.0   3.40
Fe     4  0.1515180000000  0.4077320000000 -0.3814850000000 1.0   3.40
Fe     4 -0.0176330000000 -0.5664990000000  0.0341920000000 1.0   3.63
Fe     4  0.0341920000000 -0.0176330000000 -0.5664990000000 1.0   3.63
Fe     4 -0.5664990000000  0.0341920000000 -0.0176330000000 1.0   3.63
END
