TITL LFSO-Li5FeS3O-200910-091004-26b229 0.0156 172.879959 -3.21325208E+003 -4.99869 5.03680 10 (R3) n - 1
REM
REM Run started: Thu, 10 Sep 2020 09:42:35 +0100 in /lustre/scratch/uccabz1/launch_tmp/launcher_2020-09-10-08-10-01-933575
REM CASTEP 20.1 from code version af48c487+ pr-geom-scf-spinfix Tue Jun 2 15:39:59 2020 +0100
REM Functional Perdew Burke Ernzerhof Relativity Koelling-Harmon Dispersion off
REM Cut-off 340.0000 eV Grid scale 1.7500 Gmax 16.5316 1/A FBSC none
REM MP grid 3 3 3 Offset 0.000 0.000 0.000 No. kpts 6 Spacing 0.07
REM Total runtime: 2382.13 s
REM Overall efficiency: 94.5 %
REM
REM
REM
REM compiler GCC version 4.9.2
REM options -cpp -iprefix /lustre/shared/ucl/apps/gcc/4.9.2/bin/../lib/gcc/x86_64-unknown-linux-gnu/4.9.2/ -mtune=corei7 -march=x86-64 -g -Og
REM COMMAND_LINE
REM seed 2094230241 -1817483477 579859536 766355396 -168711507 -1587041270 143602968 450399096 -1063902355 -2035992799 -1709072043 1882457043
REM
REM S 3|1.8|5|6|7|30:31:32(qc=5)
REM O 2|1.5|12|13|15|20:21(qc=5)
REM Li 1|1.3|8|9|10|10U:20(qc=5)
REM Fe 3|2.2|2.0|1.0|8|9|10|40:41:32(qc=5)
REM 
CELL 1.54180    5.59746    5.59746    5.59746   84.23108   84.23109   84.23109
LATT -1
SFAC Li O  S  Fe 
Li     1 -0.4526510000000 -0.0177450000000 -0.3880750000000 1.0   0.00
Li     1 -0.0177450000000 -0.3880750000000 -0.4526510000000 1.0   0.00
Li     1 -0.3880750000000 -0.4526510000000 -0.0177450000000 1.0   0.00
Li     1  0.4762490000000  0.4762490000000  0.4762490000000 1.0  -0.15
Li     1  0.1838420000000  0.1838420000000  0.1838420000000 1.0   0.01
O      2 -0.2505720000000 -0.2505720000000 -0.2505720000000 1.0  -0.28
S      3 -0.3179970000000  0.1586070000000  0.1941180000000 1.0  -0.28
S      3  0.1586070000000  0.1941180000000 -0.3179970000000 1.0  -0.28
S      3  0.1941180000000 -0.3179970000000  0.1586070000000 1.0  -0.28
Fe     4 -0.0732030000000 -0.0732030000000 -0.0732030000000 1.0  -3.74
END
