TITL LFSO-Li2Fe4S4O-200911-201221-0efa32 -0.0267 186.168452 -5.50354213E+003 -0.190259E-03 0.338551E-03 11 (Fmm2) n - 1
REM
REM Run started: Sat, 12 Sep 2020 01:25:52 +0100 in /lustre/scratch/uccabz1/launch_tmp/launcher_2020-09-11-22-11-40-867074
REM CASTEP 20.1 from code version af48c487+ pr-geom-scf-spinfix Tue Jun 2 15:39:59 2020 +0100
REM Functional Perdew Burke Ernzerhof Relativity Koelling-Harmon Dispersion off
REM Cut-off 340.0000 eV Grid scale 1.7500 Gmax 16.5316 1/A FBSC none
REM MP grid 4 4 2 Offset 0.000 0.000 0.000 No. kpts 10 Spacing 0.07
REM Total runtime: 18808.3 s
REM Overall efficiency: 81.3333 %
REM
REM
REM
REM compiler GCC version 4.9.2
REM options -cpp -iprefix /lustre/shared/ucl/apps/gcc/4.9.2/bin/../lib/gcc/x86_64-unknown-linux-gnu/4.9.2/ -mtune=corei7 -march=x86-64 -g -Og
REM COMMAND_LINE
REM seed 1059591414 -1648518695 -1096346425 577611931 -1010476724 1008441359 -752297747 -1887241713 -425941522 920392245 1553560680 -1229052812
REM
REM S 3|1.8|5|6|7|30:31:32(qc=5)
REM O 2|1.5|12|13|15|20:21(qc=5)
REM Li 1|1.3|8|9|10|10U:20(qc=5)
REM Fe 3|2.2|2.0|1.0|8|9|10|40:41:32(qc=5)
REM 
CELL 1.54180    3.93798    3.93798   12.36491   99.73006   99.73006   86.48386
LATT -1
SFAC Li O  S  Fe 
Li     1 -0.2976960000000 -0.2002330000000  0.0000000000000 1.0
Li     1  0.2002330000000  0.2976960000000  0.0000000000000 1.0
O      2 -0.3010840000000  0.3010840000000  0.0000000000000 1.0
S      3 -0.1840290000000  0.4002410000000 -0.2806260000000 1.0
S      3 -0.4002410000000  0.1840290000000  0.2806260000000 1.0
S      3  0.0965960000000 -0.3191340000000  0.2806260000000 1.0
S      3  0.3191340000000 -0.0965960000000 -0.2806260000000 1.0
Fe     4  0.0768520000000  0.1629280000000 -0.4100230000000 1.0
Fe     4 -0.1629280000000 -0.0768520000000  0.4100230000000 1.0
Fe     4 -0.5131250000000 -0.4270490000000  0.4100230000000 1.0
Fe     4  0.4270490000000  0.5131250000000 -0.4100230000000 1.0
END
