TITL LFSO-LiFe3S2O3-200909-175334-739a59 -0.0336 242.982450 -9.42525829E+003 -11.8249 12.5332 18 (R3) n - 1
REM
REM Run started: Thu, 10 Sep 2020 06:04:04 +0100 in /lustre/scratch/uccabz1/launch_tmp/launcher_2020-09-09-16-53-32-967475
REM CASTEP 20.1 from code version af48c487+ pr-geom-scf-spinfix Tue Jun 2 15:39:59 2020 +0100
REM Functional Perdew Burke Ernzerhof Relativity Koelling-Harmon Dispersion off
REM Cut-off 340.0000 eV Grid scale 1.7500 Gmax 16.5316 1/A FBSC none
REM MP grid 3 3 2 Offset 0.000 0.000 0.000 No. kpts 7 Spacing 0.07
REM Total runtime: 43966 s
REM Overall efficiency: 82.6364 %
REM
REM
REM
REM compiler GCC version 4.9.2
REM options -cpp -iprefix /lustre/shared/ucl/apps/gcc/4.9.2/bin/../lib/gcc/x86_64-unknown-linux-gnu/4.9.2/ -mtune=corei7 -march=x86-64 -g -Og
REM COMMAND_LINE
REM seed 918575110 -633662276 -1894856240 -493405631 -1463631774 -725078164 -1564842305 -963708984 424117801 585100542 -1648729020 -2067297372
REM
REM S 3|1.8|5|6|7|30:31:32(qc=5)
REM O 2|1.5|12|13|15|20:21(qc=5)
REM Li 1|1.3|8|9|10|10U:20(qc=5)
REM Fe 3|2.2|2.0|1.0|8|9|10|40:41:32(qc=5)
REM 
CELL 1.54180    5.82016    5.82016    8.93841   70.99988   70.99988   60.00000
LATT -1
SFAC Li O  S  Fe 
Li     1  0.2335060000000  0.2335060000000 -0.7005170000000 1.0  -0.03
Li     1 -0.3583260000000 -0.3583260000000  0.0749770000000 1.0  -0.01
O      2  0.4345930000000 -0.0139560000000  0.1487650000000 1.0  -0.16
O      2 -0.5694030000000  0.4345930000000  0.1487650000000 1.0  -0.16
O      2 -0.0139560000000 -0.5694030000000  0.1487650000000 1.0  -0.16
O      2 -0.1314580000000 -0.1154290000000 -0.0872740000000 1.0  -0.15
O      2  0.3341620000000 -0.1314580000000 -0.0872740000000 1.0  -0.15
O      2 -0.1154290000000  0.3341620000000 -0.0872740000000 1.0  -0.15
S      3 -0.1951610000000 -0.5222770000000 -0.4319440000000 1.0   0.05
S      3  0.1493810000000 -0.1951610000000 -0.4319440000000 1.0   0.05
S      3 -0.5222770000000  0.1493810000000 -0.4319440000000 1.0   0.05
S      3  0.3941780000000  0.3941780000000 -0.1825350000000 1.0  -0.09
Fe     4 -0.2183550000000  0.0830650000000 -0.2971030000000 1.0  -1.13
Fe     4  0.4323930000000 -0.2183550000000 -0.2971030000000 1.0  -1.13
Fe     4  0.0830650000000  0.4323930000000 -0.2971030000000 1.0  -1.13
Fe     4 -0.3426600000000  0.1577550000000  0.0331480000000 1.0  -2.50
Fe     4  0.1517570000000 -0.3426600000000  0.0331480000000 1.0  -2.50
Fe     4  0.1577550000000  0.1517570000000  0.0331480000000 1.0  -2.50
END
