TITL LFSO-Li4Fe3S2O3-200928-143226-8f0de9 0.1258 200.607300 -5.30952493E+003 10.4289 10.7878 12 (P2) n - 1
REM
REM Run started: Mon, 28 Sep 2020 22:04:21 +0100 in /lustre/scratch/uccabz1/launch_tmp/launcher_2020-09-28-13-32-24-412214
REM CASTEP 20.1 from code version af48c487+ pr-geom-scf-spinfix Tue Jun 2 15:39:59 2020 +0100
REM Functional Perdew Burke Ernzerhof Relativity Koelling-Harmon Dispersion off
REM Cut-off 340.0000 eV Grid scale 1.7500 Gmax 16.5316 1/A FBSC none
REM MP grid 4 4 2 Offset 0.000 0.000 0.000 No. kpts 8 Spacing 0.07
REM Total runtime: 27700.7 s
REM Overall efficiency: 97.4167 %
REM
REM
REM
REM compiler GCC version 4.9.2
REM options -cpp -iprefix /lustre/shared/ucl/apps/gcc/4.9.2/bin/../lib/gcc/x86_64-unknown-linux-gnu/4.9.2/ -mtune=corei7 -march=x86-64 -g -Og
REM COMMAND_LINE
REM seed 337779202 -1735152321 -287859389 594764732 420808138 -1508928964 -1211032925 -1529722181 -2044357528 2128568208 -526841057 -147493785
REM
REM S 3|1.8|5|6|7|30:31:32(qc=5)
REM O 2|1.5|12|13|15|20:21(qc=5)
REM Li 1|1.3|8|9|10|10U:20(qc=5)
REM Fe 3|2.2|2.0|1.0|8|9|10|40:41:32(qc=5)
REM 
CELL 1.54180    4.47322    5.39035    9.06202   90.00000   90.00000   66.64822
LATT -1
SFAC Li O  S  Fe 
Li     1 -0.2740480000000  0.2083060000000 -0.2157900000000 1.0  -0.05
Li     1  0.2740480000000 -0.2083060000000 -0.2157900000000 1.0  -0.05
Li     1 -0.2509530000000 -0.2427770000000  0.1306350000000 1.0  -0.02
Li     1  0.2509530000000  0.2427770000000  0.1306350000000 1.0  -0.02
O      2  0.2980510000000  0.2776170000000  0.3415860000000 1.0   0.33
O      2 -0.2980510000000 -0.2776170000000  0.3415860000000 1.0   0.33
O      2  0.0000000000000  0.0000000000000 -0.3525400000000 1.0   0.16
S      3  0.2538880000000 -0.2550820000000  0.0284800000000 1.0   0.02
S      3 -0.2538880000000  0.2550820000000  0.0284800000000 1.0   0.02
Fe     4  0.1170030000000  0.1827140000000 -0.5026700000000 1.0   3.22
Fe     4 -0.1170030000000 -0.1827140000000 -0.5026700000000 1.0   3.22
Fe     4 -0.5000000000000 -0.5000000000000 -0.6131430000000 1.0   3.30
END
