TITL LFSO-Li2Fe3S2O2-200921-041008-438ac9 0.1205 353.306340 -8.94667813E+003 -21.6955 21.8449 18 (C2) n - 1
REM
REM Run started: Mon, 21 Sep 2020 21:28:54 +0100 in /lustre/scratch/uccabz1/launch_tmp/launcher_2020-09-21-18-41-58-418779
REM CASTEP 20.1 from code version af48c487+ pr-geom-scf-spinfix Tue Jun 2 15:39:59 2020 +0100
REM Functional Perdew Burke Ernzerhof Relativity Koelling-Harmon Dispersion off
REM Cut-off 340.0000 eV Grid scale 1.7500 Gmax 16.5316 1/A FBSC none
REM MP grid 2 3 3 Offset 0.000 0.000 0.000 No. kpts 6 Spacing 0.07
REM Total runtime: 60470 s
REM Overall efficiency: 87 %
REM
REM
REM
REM compiler GCC version 4.9.2
REM options -cpp -iprefix /lustre/shared/ucl/apps/gcc/4.9.2/bin/../lib/gcc/x86_64-unknown-linux-gnu/4.9.2/ -mtune=corei7 -march=x86-64 -g -Og
REM COMMAND_LINE
REM seed 1861622504 1632051201 2106383845 1787122622 -1617657147 -583412663 -517159288 1899247902 457016216 -227255968 1654641952 -904189597
REM
REM S 3|1.8|5|6|7|30:31:32(qc=5)
REM O 2|1.5|12|13|15|20:21(qc=5)
REM Li 1|1.3|8|9|10|10U:20(qc=5)
REM Fe 3|2.2|2.0|1.0|8|9|10|40:41:32(qc=5)
REM 
CELL 1.54180    8.18544    6.85936    6.85936   66.63765   91.80215   91.80215
LATT -1
SFAC Li O  S  Fe 
Li     1  0.0597140000000  0.1348470000000  0.1094830000000 1.0   0.02
Li     1 -0.0597140000000 -0.1094830000000 -0.1348470000000 1.0   0.02
Li     1 -0.4200960000000  0.1195580000000  0.2690000000000 1.0  -0.02
Li     1  0.4200960000000 -0.2690000000000 -0.1195580000000 1.0  -0.02
O      2  0.0720830000000  0.4304470000000 -0.0209560000000 1.0  -0.26
O      2 -0.0720830000000  0.0209560000000 -0.4304470000000 1.0  -0.26
O      2  0.1657070000000  0.4932970000000 -0.5106420000000 1.0  -0.31
O      2 -0.1657070000000  0.5106420000000 -0.4932970000000 1.0  -0.31
S      3  0.2190290000000 -0.1165870000000  0.0393570000000 1.0  -0.28
S      3 -0.2190290000000 -0.0393570000000  0.1165870000000 1.0  -0.28
S      3 -0.4613180000000 -0.2149460000000 -0.4427640000000 1.0  -0.31
S      3  0.4613180000000  0.4427640000000  0.2149460000000 1.0  -0.31
Fe     4  0.3503380000000 -0.3144430000000  0.3569170000000 1.0  -3.39
Fe     4 -0.3503380000000 -0.3569170000000  0.3144430000000 1.0  -3.39
Fe     4 -0.0100340000000 -0.5047030000000 -0.2878860000000 1.0  -3.14
Fe     4  0.0100340000000  0.2878860000000  0.5047030000000 1.0  -3.14
Fe     4 -0.1568480000000 -0.1851790000000 -0.5132310000000 1.0  -3.16
Fe     4  0.1568480000000  0.5132310000000  0.1851790000000 1.0  -3.16
END
