TITL LFSO-Li4FeS2O-200910-120204-61a9d3 0.0011 164.621551 -2.70604557E+003 -4.00000 4.02605 8 (R3) n - 1
REM
REM Run started: Thu, 10 Sep 2020 19:43:09 +0100 in /lustre/scratch/uccabz1/launch_tmp/launcher_2020-09-10-11-02-01-119226
REM CASTEP 20.1 from code version af48c487+ pr-geom-scf-spinfix Tue Jun 2 15:39:59 2020 +0100
REM Functional Perdew Burke Ernzerhof Relativity Koelling-Harmon Dispersion off
REM Cut-off 340.0000 eV Grid scale 1.7500 Gmax 16.5316 1/A FBSC none
REM MP grid 4 4 2 Offset 0.000 0.000 0.000 No. kpts 16 Spacing 0.07
REM Total runtime: 15051.6 s
REM Overall efficiency: 96.3 %
REM
REM
REM
REM compiler GCC version 4.9.2
REM options -cpp -iprefix /lustre/shared/ucl/apps/gcc/4.9.2/bin/../lib/gcc/x86_64-unknown-linux-gnu/4.9.2/ -mtune=corei7 -march=x86-64 -g -Og
REM COMMAND_LINE
REM seed -892293736 874385326 -1766534332 -1410259699 23609628 -976953754 539459119 871607074 1722522851 1062434875 -1206524621 953197864
REM
REM S 3|1.8|5|6|7|30:31:32(qc=5)
REM O 2|1.5|12|13|15|20:21(qc=5)
REM Li 1|1.3|8|9|10|10U:20(qc=5)
REM Fe 3|2.2|2.0|1.0|8|9|10|40:41:32(qc=5)
REM 
CELL 1.54180    4.53457    4.53457    9.60807   76.35080   76.35080   60.00000
LATT -1
SFAC Li O  S  Fe 
Li     1 -0.3015460000000  0.0390980000000 -0.0550910000000 1.0   0.00
Li     1  0.3175400000000 -0.3015460000000 -0.0550910000000 1.0   0.00
Li     1  0.0390980000000  0.3175400000000 -0.0550910000000 1.0   0.00
Li     1 -0.1812420000000 -0.1812420000000 -0.4562740000000 1.0   0.01
O      2 -0.0186550000000 -0.0186550000000  0.0559650000000 1.0  -0.18
S      3 -0.2623050000000 -0.2623050000000 -0.2130860000000 1.0  -0.01
S      3  0.2240370000000  0.2240370000000  0.3278890000000 1.0  -0.15
Fe     4 -0.0857690000000 -0.0857690000000  0.2573060000000 1.0  -3.69
END
