TITL LFSO-LiFeSO-200909-041026-1f7dd5 0.0522 98.992910 -3.61010334E+003 4.99218 5.10361 8 (P3m1) n - 1
REM
REM Run started: Wed, 09 Sep 2020 05:20:19 +0100 in /lustre/scratch/uccabz1/launch_tmp/launcher_2020-09-09-03-10-24-417929
REM CASTEP 20.1 from code version af48c487+ pr-geom-scf-spinfix Tue Jun 2 15:39:59 2020 +0100
REM Functional Perdew Burke Ernzerhof Relativity Koelling-Harmon Dispersion off
REM Cut-off 340.0000 eV Grid scale 1.7500 Gmax 16.5316 1/A FBSC none
REM MP grid 6 6 2 Offset 0.000 0.000 0.000 No. kpts 21 Spacing 0.07
REM Total runtime: 5290.07 s
REM Overall efficiency: 86.2 %
REM
REM
REM
REM compiler GCC version 4.9.2
REM options -cpp -iprefix /lustre/shared/ucl/apps/gcc/4.9.2/bin/../lib/gcc/x86_64-unknown-linux-gnu/4.9.2/ -mtune=corei7 -march=x86-64 -g -Og
REM COMMAND_LINE
REM seed 407823828 1039545534 1207241453 -1766515163 -113275050 55819174 905071718 -1221287040 2052971537 1917345983 -310513175 -1902443536
REM
REM S 3|1.8|5|6|7|30:31:32(qc=5)
REM O 2|1.5|12|13|15|20:21(qc=5)
REM Li 1|1.3|8|9|10|10U:20(qc=5)
REM Fe 3|2.2|2.0|1.0|8|9|10|40:41:32(qc=5)
REM 
CELL 1.54180    3.03046    3.03046   12.44676   90.00000   90.00000  120.00000
LATT -1
SFAC Li O  S  Fe 
Li     1  0.0000000000000  0.0000000000000 -0.5183180000000 1.0  -0.01
Li     1 -0.3333330000000  0.3333330000000  0.1611820000000 1.0   0.01
O      2  0.3333330000000 -0.3333330000000 -0.4367470000000 1.0   0.32
O      2  0.3333330000000 -0.3333330000000 -0.2271250000000 1.0   0.19
S      3  0.0000000000000  0.0000000000000 -0.0243330000000 1.0  -0.01
S      3  0.0000000000000  0.0000000000000  0.2890080000000 1.0   0.01
Fe     4 -0.3333330000000  0.3333330000000 -0.3394600000000 1.0   3.61
Fe     4 -0.3333330000000  0.3333330000000 -0.1274620000000 1.0   0.88
END
