TITL LFSO-Li6FeS2O2-200920-193016-d3192a 0.0655 268.823268 -3.54170258E+003 -4.00000 4.19753 11 (P3) n - 1
REM
REM Run started: Sun, 20 Sep 2020 23:10:58 +0100 in /lustre/scratch/uccabz1/launch_tmp/launcher_2020-09-20-18-30-15-145557
REM CASTEP 20.1 from code version af48c487+ pr-geom-scf-spinfix Tue Jun 2 15:39:59 2020 +0100
REM Functional Perdew Burke Ernzerhof Relativity Koelling-Harmon Dispersion off
REM Cut-off 340.0000 eV Grid scale 1.7500 Gmax 16.5316 1/A FBSC none
REM MP grid 3 3 2 Offset 0.000 0.000 0.000 No. kpts 5 Spacing 0.07
REM Total runtime: 14382.8 s
REM Overall efficiency: 83 %
REM
REM
REM
REM compiler GCC version 4.9.2
REM options -cpp -iprefix /lustre/shared/ucl/apps/gcc/4.9.2/bin/../lib/gcc/x86_64-unknown-linux-gnu/4.9.2/ -mtune=corei7 -march=x86-64 -g -Og
REM COMMAND_LINE
REM seed -869412039 190875708 832651725 1195032243 -1474051351 1071723220 -255230137 1592179413 -760720800 499172532 1730660328 730344847
REM
REM S 3|1.8|5|6|7|30:31:32(qc=5)
REM O 2|1.5|12|13|15|20:21(qc=5)
REM Li 1|1.3|8|9|10|10U:20(qc=5)
REM Fe 3|2.2|2.0|1.0|8|9|10|40:41:32(qc=5)
REM 
CELL 1.54180    6.30878    6.30878    7.79911   90.00000   90.00000  120.00000
LATT -1
SFAC Li O  S  Fe 
Li     1  0.4138310000000  0.3799050000000 -0.4056810000000 1.0   0.05
Li     1 -0.3799050000000  0.0339260000000 -0.4056810000000 1.0   0.05
Li     1 -0.0339260000000 -0.4138310000000 -0.4056810000000 1.0   0.05
Li     1 -0.4662620000000  0.0367890000000  0.0567480000000 1.0   0.01
Li     1 -0.0367890000000 -0.5030500000000  0.0567480000000 1.0   0.01
Li     1  0.5030500000000  0.4662620000000  0.0567480000000 1.0   0.01
O      2 -0.3333330000000  0.3333330000000  0.1816760000000 1.0  -0.00
O      2  0.3333330000000 -0.3333330000000  0.0368010000000 1.0  -0.26
S      3 -0.3333330000000  0.3333330000000 -0.1962910000000 1.0  -0.09
S      3 -0.3333330000000  0.3333330000000  0.4014240000000 1.0  -0.02
Fe     4  0.3333330000000 -0.3333330000000 -0.1924220000000 1.0  -3.79
END
