TITL LFSO-Li6FeS2O2-200920-213844-5ab8b1 0.0322 162.899853 -3.54748445E+003 -4.00000 4.11816 11 (P-1) n - 1
REM
REM Run started: Mon, 21 Sep 2020 00:42:33 +0100 in /lustre/scratch/uccabz1/launch_tmp/launcher_2020-09-20-20-38-43-283836
REM CASTEP 20.1 from code version af48c487+ pr-geom-scf-spinfix Tue Jun 2 15:39:59 2020 +0100
REM Functional Perdew Burke Ernzerhof Relativity Koelling-Harmon Dispersion off
REM Cut-off 340.0000 eV Grid scale 1.7500 Gmax 16.5316 1/A FBSC none
REM MP grid 5 5 3 Offset 0.000 0.000 0.000 No. kpts 38 Spacing 0.07
REM Total runtime: 12231.4 s
REM Overall efficiency: 97.25 %
REM
REM
REM
REM compiler GCC version 4.9.2
REM options -cpp -iprefix /lustre/shared/ucl/apps/gcc/4.9.2/bin/../lib/gcc/x86_64-unknown-linux-gnu/4.9.2/ -mtune=corei7 -march=x86-64 -g -Og
REM COMMAND_LINE
REM seed -1113492938 -1753369710 1380699684 -2057033427 1634047310 1126360039 -66894130 459744340 162095914 1194717986 -939016029 -1060533876
REM
REM S 3|1.8|5|6|7|30:31:32(qc=5)
REM O 2|1.5|12|13|15|20:21(qc=5)
REM Li 1|1.3|8|9|10|10U:20(qc=5)
REM Fe 3|2.2|2.0|1.0|8|9|10|40:41:32(qc=5)
REM 
CELL 1.54180    6.10197    7.43229    7.72237  113.40148   75.01606  149.02688
LATT -1
SFAC Li O  S  Fe 
Li     1 -0.4106520000000  0.1824200000000  0.3797830000000 1.0   0.00
Li     1  0.4106520000000 -0.1824200000000 -0.3797830000000 1.0   0.00
Li     1 -0.2532330000000  0.5551690000000  0.1170320000000 1.0   0.05
Li     1  0.2532330000000 -0.5551690000000 -0.1170320000000 1.0   0.05
Li     1 -0.0520520000000 -0.1370200000000 -0.2640780000000 1.0  -0.02
Li     1  0.0520520000000  0.1370200000000  0.2640780000000 1.0  -0.02
O      2  0.3299470000000  0.1000080000000  0.1871690000000 1.0  -0.16
O      2 -0.3299470000000 -0.1000080000000 -0.1871690000000 1.0  -0.16
S      3 -0.6922320000000 -0.3853260000000  0.2574390000000 1.0  -0.10
S      3  0.6922320000000  0.3853260000000 -0.2574390000000 1.0  -0.10
Fe     4 -0.5000000000000  0.0000000000000  0.0000000000000 1.0  -3.55
END
