TITL LFSO-LiFeSO-200909-030850-ab7747 0.0115 165.340502 -5.40794790E+003 9.13458 10.2698 12 (C2/m) n - 1
REM
REM Run started: Wed, 09 Sep 2020 04:06:46 +0100 in /lustre/scratch/uccabz1/launch_tmp/launcher_2020-09-09-02-08-49-025523
REM CASTEP 20.1 from code version af48c487+ pr-geom-scf-spinfix Tue Jun 2 15:39:59 2020 +0100
REM Functional Perdew Burke Ernzerhof Relativity Koelling-Harmon Dispersion off
REM Cut-off 340.0000 eV Grid scale 1.7500 Gmax 16.5316 1/A FBSC none
REM MP grid 3 3 3 Offset 0.000 0.000 0.000 No. kpts 10 Spacing 0.07
REM Total runtime: 4141.66 s
REM Overall efficiency: 78.5 %
REM
REM
REM
REM compiler GCC version 4.9.2
REM options -cpp -iprefix /lustre/shared/ucl/apps/gcc/4.9.2/bin/../lib/gcc/x86_64-unknown-linux-gnu/4.9.2/ -mtune=corei7 -march=x86-64 -g -Og
REM COMMAND_LINE
REM seed 1639431297 354726595 355288652 -1442510412 -1484272672 457974041 1480359162 -234293874 -60877965 -2072622733 -1576024884 -372105908
REM
REM S 3|1.8|5|6|7|30:31:32(qc=5)
REM O 2|1.5|12|13|15|20:21(qc=5)
REM Li 1|1.3|8|9|10|10U:20(qc=5)
REM Fe 3|2.2|2.0|1.0|8|9|10|40:41:32(qc=5)
REM 
CELL 1.54180    6.21704    5.17788    5.17788   96.80022   88.28508   88.28508
LATT -1
SFAC Li O  S  Fe 
Li     1  0.2943370000000  0.2990250000000  0.2990250000000 1.0  -0.06
Li     1 -0.2943370000000 -0.2990250000000 -0.2990250000000 1.0  -0.06
Li     1  0.0000000000000  0.5000000000000  0.5000000000000 1.0  -0.06
O      2 -0.5000000000000  0.2018390000000 -0.2018390000000 1.0  -0.18
O      2  0.5000000000000 -0.2018390000000  0.2018390000000 1.0  -0.18
O      2  0.5000000000000  0.5000000000000  0.5000000000000 1.0   0.33
S      3  0.0000000000000  0.5000000000000  0.0000000000000 1.0   0.11
S      3  0.0000000000000  0.0000000000000  0.5000000000000 1.0   0.11
S      3 -0.5000000000000  0.0000000000000  0.0000000000000 1.0  -0.19
Fe     4 -0.3055980000000  0.2758490000000  0.2758490000000 1.0   3.10
Fe     4  0.3055980000000 -0.2758490000000 -0.2758490000000 1.0   3.10
Fe     4  0.0000000000000  0.0000000000000  0.0000000000000 1.0   3.11
END
