TITL LFSO-Li2Fe2S2O-200913-125326-8d68de -0.0500 351.898464 -9.51695540E+003 -16.1814 17.0078 21 (R3) n - 1
REM
REM Run started: Mon, 14 Sep 2020 07:19:20 +0100 in /lustre/scratch/uccabz1/launch_tmp/launcher_2020-09-14-05-58-11-881841
REM CASTEP 20.1 from code version af48c487+ pr-geom-scf-spinfix Tue Jun 2 15:39:59 2020 +0100
REM Functional Perdew Burke Ernzerhof Relativity Koelling-Harmon Dispersion off
REM Cut-off 340.0000 eV Grid scale 1.7500 Gmax 16.5316 1/A FBSC none
REM MP grid 3 3 3 Offset 0.000 0.000 0.000 No. kpts 6 Spacing 0.07
REM Total runtime: 60412.3 s
REM Overall efficiency: 98.5 %
REM
REM
REM
REM compiler GCC version 4.9.2
REM options -cpp -iprefix /lustre/shared/ucl/apps/gcc/4.9.2/bin/../lib/gcc/x86_64-unknown-linux-gnu/4.9.2/ -mtune=corei7 -march=x86-64 -g -Og
REM COMMAND_LINE
REM seed 240782987 -1331098794 1411680585 930013472 -256456278 173460713 -601719355 -1998282145 735571628 -1743044168 246486037 -1853959999
REM
REM S 3|1.8|5|6|7|30:31:32(qc=5)
REM O 2|1.5|12|13|15|20:21(qc=5)
REM Li 1|1.3|8|9|10|10U:20(qc=5)
REM Fe 3|2.2|2.0|1.0|8|9|10|40:41:32(qc=5)
REM 
CELL 1.54180    7.60317    7.60317    7.60317  108.33165  108.33165  108.33165
LATT -1
SFAC Li O  S  Fe 
Li     1 -0.0632010000000 -0.0851760000000 -0.3375020000000 1.0   0.02
Li     1 -0.3375020000000 -0.0632010000000 -0.0851760000000 1.0   0.02
Li     1 -0.0851760000000 -0.3375020000000 -0.0632010000000 1.0   0.02
Li     1 -0.0936830000000  0.1311660000000 -0.5456700000000 1.0   0.03
Li     1 -0.5456700000000 -0.0936830000000  0.1311660000000 1.0   0.03
Li     1  0.1311660000000 -0.5456700000000 -0.0936830000000 1.0   0.03
O      2  0.0914710000000  0.1825610000000 -0.2640870000000 1.0  -0.20
O      2 -0.2640870000000  0.0914710000000  0.1825610000000 1.0  -0.20
O      2  0.1825610000000 -0.2640870000000  0.0914710000000 1.0  -0.20
S      3 -0.2871860000000  0.3639070000000 -0.0555170000000 1.0   0.00
S      3 -0.0555170000000 -0.2871860000000  0.3639070000000 1.0   0.00
S      3  0.3639070000000 -0.0555170000000 -0.2871860000000 1.0   0.00
S      3 -0.4291340000000 -0.2058130000000 -0.5891190000000 1.0  -0.10
S      3 -0.5891190000000 -0.4291340000000 -0.2058130000000 1.0  -0.10
S      3 -0.2058130000000 -0.5891190000000 -0.4291340000000 1.0  -0.10
Fe     4 -0.2011590000000  0.3609920000000  0.2609730000000 1.0  -2.34
Fe     4  0.2609730000000 -0.2011590000000  0.3609920000000 1.0  -2.34
Fe     4  0.3609920000000  0.2609730000000 -0.2011590000000 1.0  -2.34
Fe     4  0.5835530000000  0.1230430000000 -0.3918670000000 1.0  -2.81
Fe     4 -0.3918670000000  0.5835530000000  0.1230430000000 1.0  -2.81
Fe     4  0.1230430000000 -0.3918670000000  0.5835530000000 1.0  -2.81
END
