TITL LFSO-Li6FeS2O2-200920-204701-10638f 0.0219 319.453770 -7.09204501E+003 -7.99933 8.11779 22 (R3) n - 1
REM
REM Run started: Mon, 21 Sep 2020 02:21:13 +0100 in /lustre/scratch/uccabz1/launch_tmp/launcher_2020-09-20-19-46-59-592965
REM CASTEP 20.1 from code version af48c487+ pr-geom-scf-spinfix Tue Jun 2 15:39:59 2020 +0100
REM Functional Perdew Burke Ernzerhof Relativity Koelling-Harmon Dispersion off
REM Cut-off 340.0000 eV Grid scale 1.7500 Gmax 16.5316 1/A FBSC none
REM MP grid 3 3 3 Offset 0.000 0.000 0.000 No. kpts 6 Spacing 0.07
REM Total runtime: 20427.2 s
REM Overall efficiency: 92.5 %
REM
REM
REM
REM compiler GCC version 4.9.2
REM options -cpp -iprefix /lustre/shared/ucl/apps/gcc/4.9.2/bin/../lib/gcc/x86_64-unknown-linux-gnu/4.9.2/ -mtune=corei7 -march=x86-64 -g -Og
REM COMMAND_LINE
REM seed 1580194819 -371336852 -934415275 -28620181 1633206978 416084458 -511998515 753752603 521870992 -213550830 1330051852 -1432400044
REM
REM S 3|1.8|5|6|7|30:31:32(qc=5)
REM O 2|1.5|12|13|15|20:21(qc=5)
REM Li 1|1.3|8|9|10|10U:20(qc=5)
REM Fe 3|2.2|2.0|1.0|8|9|10|40:41:32(qc=5)
REM 
CELL 1.54180    6.84269    6.84269    6.84269   87.43273   87.43273   87.43273
LATT -1
SFAC Li O  S  Fe 
Li     1 -0.6225680000000 -0.0993990000000 -0.3612930000000 1.0   0.03
Li     1 -0.3612930000000 -0.6225680000000 -0.0993990000000 1.0   0.03
Li     1 -0.0993990000000 -0.3612930000000 -0.6225680000000 1.0   0.03
Li     1  0.2099640000000 -0.2345060000000  0.1818550000000 1.0   0.02
Li     1  0.1818550000000  0.2099640000000 -0.2345060000000 1.0   0.02
Li     1 -0.2345060000000  0.1818550000000  0.2099640000000 1.0   0.02
Li     1  0.4060510000000  0.1130210000000  0.2361760000000 1.0  -0.03
Li     1  0.2361760000000  0.4060510000000  0.1130210000000 1.0  -0.03
Li     1  0.1130210000000  0.2361760000000  0.4060510000000 1.0  -0.03
Li     1 -0.4635260000000 -0.4403490000000  0.2608560000000 1.0  -0.05
Li     1  0.2608560000000 -0.4635260000000 -0.4403490000000 1.0  -0.05
Li     1 -0.4403490000000  0.2608560000000 -0.4635260000000 1.0  -0.05
O      2  0.1531950000000 -0.4507950000000  0.3280470000000 1.0  -0.02
O      2  0.3280470000000  0.1531950000000 -0.4507950000000 1.0  -0.02
O      2 -0.4507950000000  0.3280470000000  0.1531950000000 1.0  -0.02
O      2  0.1333150000000  0.1333150000000  0.1333150000000 1.0  -0.21
S      3 -0.1546720000000  0.1209310000000 -0.3116520000000 1.0  -0.25
S      3 -0.3116520000000 -0.1546720000000  0.1209310000000 1.0  -0.25
S      3  0.1209310000000 -0.3116520000000 -0.1546720000000 1.0  -0.25
S      3  0.6036660000000  0.6036660000000  0.6036660000000 1.0  -0.11
Fe     4 -0.2117120000000 -0.2117120000000 -0.2117120000000 1.0  -3.45
Fe     4 -0.0172770000000 -0.0172770000000 -0.0172770000000 1.0  -3.35
END
