TITL LFSO-Li3Fe3S2O4-200929-122740-cca72f 0.0119 165.172670 -5.55085919E+003 6.33520 6.71262 12 (P2/m) n - 1
REM
REM Run started: Tue, 29 Sep 2020 19:13:32 +0100 in /scratch/scratch/uccabz1/launch_tmp/launcher_2020-09-29-11-27-39-359003
REM CASTEP 19.11| from code version Version unavailable
REM Functional Perdew Burke Ernzerhof Relativity Koelling-Harmon Dispersion off
REM Cut-off 340.0000 eV Grid scale 1.7500 Gmax 16.5316 1/A FBSC none
REM MP grid 6 2 3 Offset 0.000 0.000 0.000 No. kpts 9 Spacing 0.07
REM Total runtime: 25999.1 s
REM Overall efficiency: 98 %
REM
REM
REM
REM compiler GCC version 4.9.2
REM options -cpp -iprefix /scratch/UCL/applications/gcc/4.9.2/bin/../lib/gcc/x86_64-unknown-linux-gnu/4.9.2/ -mtune=corei7 -march=x86-64 -g -O2
REM COMMAND_LINE
REM seed 93749369 -969752516 1065902313 -1763373270 -1257948650 2112914519 -2118533923 1806639719 -857193227 -2125800237 1021650029 -154383650
REM
REM S 3|1.8|5|6|7|30:31:32(qc=5)
REM O 2|1.5|12|13|15|20:21(qc=5)
REM Li 1|1.3|8|9|10|10U:20(qc=5)
REM Fe 3|2.2|2.0|1.0|8|9|10|40:41:32(qc=5)
REM 
CELL 1.54180    2.73731   10.86245    8.00699  136.07053   90.00000   90.00000
LATT -1
SFAC Li O  S  Fe 
Li     1 -0.1979710000000  0.3347570000000  0.1565530000000 1.0  -0.04
Li     1 -0.1979710000000 -0.3347570000000 -0.1565530000000 1.0  -0.04
Li     1  0.2971800000000  0.0000000000000  0.0000000000000 1.0  -0.01
O      2 -0.2135060000000 -0.1942050000000 -0.2285210000000 1.0   0.09
O      2 -0.2135060000000  0.1942050000000  0.2285210000000 1.0   0.09
O      2 -0.2130260000000 -0.4223110000000  0.3090880000000 1.0   0.05
O      2 -0.2130260000000  0.4223110000000 -0.3090880000000 1.0   0.05
S      3  0.2976280000000 -0.2652060000000  0.1614330000000 1.0   0.05
S      3  0.2976280000000  0.2652060000000 -0.1614330000000 1.0   0.05
Fe     4  0.2837030000000 -0.2993880000000 -0.4622380000000 1.0   2.44
Fe     4  0.2837030000000  0.2993880000000  0.4622380000000 1.0   2.44
Fe     4 -0.2047730000000 -0.5000000000000  0.0000000000000 1.0   1.15
END
