TITL LFSO-Li2Fe2SO2-200912-225041-0088f8 -0.0160 338.318994 -9.92159088E+003 20.0135 20.3808 21 (R3) n - 1
REM
REM Run started: Sun, 13 Sep 2020 11:09:28 +0100 in /lustre/scratch/uccabz1/launch_tmp/launcher_2020-09-12-21-50-39-990355
REM CASTEP 20.1 from code version af48c487+ pr-geom-scf-spinfix Tue Jun 2 15:39:59 2020 +0100
REM Functional Perdew Burke Ernzerhof Relativity Koelling-Harmon Dispersion off
REM Cut-off 340.0000 eV Grid scale 1.7500 Gmax 16.5316 1/A FBSC none
REM MP grid 3 3 3 Offset 0.000 0.000 0.000 No. kpts 6 Spacing 0.07
REM Total runtime: 47878.6 s
REM Overall efficiency: 98.625 %
REM
REM
REM
REM compiler GCC version 4.9.2
REM options -cpp -iprefix /lustre/shared/ucl/apps/gcc/4.9.2/bin/../lib/gcc/x86_64-unknown-linux-gnu/4.9.2/ -mtune=corei7 -march=x86-64 -g -Og
REM COMMAND_LINE
REM seed -1260937145 231792374 -1358660012 -233963205 116800583 22623655 -1448096512 1300931854 -1398640635 -1981556836 -873856252 1071364025
REM
REM S 3|1.8|5|6|7|30:31:32(qc=5)
REM O 2|1.5|12|13|15|20:21(qc=5)
REM Li 1|1.3|8|9|10|10U:20(qc=5)
REM Fe 3|2.2|2.0|1.0|8|9|10|40:41:32(qc=5)
REM 
CELL 1.54180    7.62575    7.62575    7.62575  109.71002  109.71002  109.71002
LATT -1
SFAC Li O  S  Fe 
Li     1  0.1206440000000 -0.1259210000000 -0.0649600000000 1.0  -0.01
Li     1 -0.0649600000000  0.1206440000000 -0.1259210000000 1.0  -0.01
Li     1 -0.1259210000000 -0.0649600000000  0.1206440000000 1.0  -0.01
Li     1  0.4999710000000  0.0010580000000 -0.2472030000000 1.0  -0.03
Li     1 -0.2472030000000  0.4999710000000  0.0010580000000 1.0  -0.03
Li     1  0.0010580000000 -0.2472030000000  0.4999710000000 1.0  -0.03
O      2 -0.2486160000000 -0.5021290000000  0.2566560000000 1.0   0.27
O      2  0.2566560000000 -0.2486160000000 -0.5021290000000 1.0   0.27
O      2 -0.5021290000000  0.2566560000000 -0.2486160000000 1.0   0.27
O      2  0.0579000000000 -0.0213660000000 -0.2494730000000 1.0   0.31
O      2 -0.2494730000000  0.0579000000000 -0.0213660000000 1.0   0.31
O      2 -0.0213660000000 -0.2494730000000  0.0579000000000 1.0   0.31
S      3  0.5137690000000  0.1084410000000  0.3020670000000 1.0   0.19
S      3  0.3020670000000  0.5137690000000  0.1084410000000 1.0   0.19
S      3  0.1084410000000  0.3020670000000  0.5137690000000 1.0   0.19
Fe     4  0.2644040000000  0.2305240000000 -0.1956910000000 1.0   3.44
Fe     4 -0.1956910000000  0.2644040000000  0.2305240000000 1.0   3.44
Fe     4  0.2305240000000 -0.1956910000000  0.2644040000000 1.0   3.44
Fe     4  0.2385320000000 -0.5135790000000  0.3679340000000 1.0   2.50
Fe     4  0.3679340000000  0.2385320000000 -0.5135790000000 1.0   2.50
Fe     4 -0.5135790000000  0.3679340000000  0.2385320000000 1.0   2.50
END
