TITL LFSO-Li4FeSO2-200910-072115-6a8d89 0.0115 86.472172 -2.84349964E+003 3.15721 3.35969 8 (Immm) n - 1
REM
REM Run started: Thu, 10 Sep 2020 08:26:44 +0100 in /lustre/scratch/uccabz1/launch_tmp/launcher_2020-09-10-06-21-12-801208
REM CASTEP 20.1 from code version af48c487+ pr-geom-scf-spinfix Tue Jun 2 15:39:59 2020 +0100
REM Functional Perdew Burke Ernzerhof Relativity Koelling-Harmon Dispersion off
REM Cut-off 340.0000 eV Grid scale 1.7500 Gmax 16.5316 1/A FBSC none
REM MP grid 4 4 5 Offset 0.000 0.000 0.000 No. kpts 26 Spacing 0.07
REM Total runtime: 4439.46 s
REM Overall efficiency: 91.875 %
REM
REM
REM
REM compiler GCC version 4.9.2
REM options -cpp -iprefix /lustre/shared/ucl/apps/gcc/4.9.2/bin/../lib/gcc/x86_64-unknown-linux-gnu/4.9.2/ -mtune=corei7 -march=x86-64 -g -Og
REM COMMAND_LINE
REM seed -1741595141 -1113307498 -1720177797 1391764944 926899713 1018069155 74277255 -1301237433 1531044575 -277100323 1167008184 -1190437237
REM
REM S 3|1.8|5|6|7|30:31:32(qc=5)
REM O 2|1.5|12|13|15|20:21(qc=5)
REM Li 1|1.3|8|9|10|10U:20(qc=5)
REM Fe 3|2.2|2.0|1.0|8|9|10|40:41:32(qc=5)
REM 
CELL 1.54180    5.84736    5.84736    3.43525   72.62818   72.62818   51.28216
LATT -1
SFAC Li O  S  Fe 
Li     1 -0.4197490000000  0.1020020000000 -0.3523260000000 1.0  -0.04
Li     1 -0.1020020000000  0.4197490000000  0.3523260000000 1.0  -0.04
Li     1  0.4197490000000 -0.1020020000000  0.3523260000000 1.0  -0.04
Li     1  0.1020020000000 -0.4197490000000 -0.3523260000000 1.0  -0.04
O      2 -0.1849360000000 -0.1849360000000 -0.8115690000000 1.0   0.15
O      2  0.1849360000000  0.1849360000000  0.8115690000000 1.0   0.15
S      3 -0.5000000000000 -0.5000000000000  0.0000000000000 1.0   0.08
Fe     4  0.0000000000000  0.0000000000000  0.0000000000000 1.0   2.93
END
