TITL LFSO-Li4Fe3S4O-200926-055933-51a6d5 0.0670 511.582240 -1.00846610E+004 -19.1991 19.9539 24 (Cm) n - 1
REM
REM Run started: Sun, 27 Sep 2020 17:23:28 +0100 in /lustre/scratch/uccabz1/launch_tmp/launcher_2020-09-26-08-56-21-525219
REM CASTEP 20.1 from code version af48c487+ pr-geom-scf-spinfix Tue Jun 2 15:39:59 2020 +0100
REM Functional Perdew Burke Ernzerhof Relativity Koelling-Harmon Dispersion off
REM Cut-off 340.0000 eV Grid scale 1.7500 Gmax 16.5316 1/A FBSC none
REM MP grid 2 2 2 Offset 0.000 0.000 0.000 No. kpts 3 Spacing 0.07
REM Total runtime: 122363 s
REM Overall efficiency: 98.6 %
REM
REM
REM
REM compiler GCC version 4.9.2
REM options -cpp -iprefix /lustre/shared/ucl/apps/gcc/4.9.2/bin/../lib/gcc/x86_64-unknown-linux-gnu/4.9.2/ -mtune=corei7 -march=x86-64 -g -Og
REM COMMAND_LINE
REM seed 1592052164 1836522695 598188789 2101074220 66413334 2071573507 652899897 1614326529 2094688627 -142638270 1501315734 -1056150295
REM
REM S 3|1.8|5|6|7|30:31:32(qc=5)
REM O 2|1.5|12|13|15|20:21(qc=5)
REM Li 1|1.3|8|9|10|10U:20(qc=5)
REM Fe 3|2.2|2.0|1.0|8|9|10|40:41:32(qc=5)
REM 
CELL 1.54180    8.25988    8.25988    9.42035  115.88807  115.88807   87.47711
LATT -1
SFAC Li O  S  Fe 
Li     1  0.1223210000000 -0.4066300000000 -0.3859350000000 1.0   0.01
Li     1 -0.4066300000000  0.1223210000000 -0.3859350000000 1.0   0.01
Li     1 -0.4429410000000  0.2497360000000  0.2979320000000 1.0  -0.00
Li     1  0.2497360000000 -0.4429410000000  0.2979320000000 1.0  -0.00
Li     1  0.2211860000000 -0.0901950000000  0.3802750000000 1.0  -0.07
Li     1 -0.0901950000000  0.2211860000000  0.3802750000000 1.0  -0.07
Li     1 -0.1567460000000  0.3765870000000  0.1202630000000 1.0   0.03
Li     1  0.3765870000000 -0.1567460000000  0.1202630000000 1.0   0.03
O      2  0.2655810000000 -0.3432710000000 -0.1305740000000 1.0  -0.24
O      2 -0.3432710000000  0.2655810000000 -0.1305740000000 1.0  -0.24
S      3 -0.2067480000000 -0.4952890000000  0.3965470000000 1.0  -0.14
S      3 -0.4952890000000 -0.2067480000000  0.3965470000000 1.0  -0.14
S      3 -0.3481720000000 -0.0004360000000  0.1039390000000 1.0  -0.22
S      3 -0.0004360000000 -0.3481720000000  0.1039390000000 1.0  -0.22
S      3 -0.1428620000000  0.2885610000000 -0.3520730000000 1.0  -0.22
S      3  0.2885610000000 -0.1428620000000 -0.3520730000000 1.0  -0.22
S      3  0.1446270000000  0.3320750000000  0.3490090000000 1.0  -0.03
S      3  0.3320750000000  0.1446270000000  0.3490090000000 1.0  -0.03
Fe     4  0.0628660000000  0.5631480000000 -0.1293550000000 1.0  -3.17
Fe     4  0.5631480000000  0.0628660000000 -0.1293550000000 1.0  -3.17
Fe     4 -0.2242630000000 -0.4538720000000 -0.3668310000000 1.0  -2.55
Fe     4 -0.4538720000000 -0.2242630000000 -0.3668310000000 1.0  -2.55
Fe     4 -0.5376710000000 -0.2426980000000 -0.1449220000000 1.0  -3.01
Fe     4 -0.2426980000000 -0.5376710000000 -0.1449220000000 1.0  -3.01
END
