TITL LFSO-Li3Fe3S5O-200928-192222-c37e6c 0.2641 219.640306 -5.14568731E+003 -6.09498 7.56390 12 (R3) n - 1
REM
REM Run started: Tue, 29 Sep 2020 12:10:23 +0100 in /scratch/scratch/uccabz1/launch_tmp/launcher_2020-09-28-18-22-20-872008
REM CASTEP 19.11| from code version Version unavailable
REM Functional Perdew Burke Ernzerhof Relativity Koelling-Harmon Dispersion off
REM Cut-off 340.0000 eV Grid scale 1.7500 Gmax 16.5316 1/A FBSC none
REM MP grid 3 3 3 Offset 0.000 0.000 0.000 No. kpts 6 Spacing 0.07
REM Total runtime: 19239.5 s
REM Overall efficiency: 97.6154 %
REM
REM
REM
REM compiler GCC version 4.9.2
REM options -cpp -iprefix /scratch/UCL/applications/gcc/4.9.2/bin/../lib/gcc/x86_64-unknown-linux-gnu/4.9.2/ -mtune=corei7 -march=x86-64 -g -O2
REM COMMAND_LINE
REM seed -257945047 -2134567382 -1153980753 -1011988009 2081932214 368713729 1196282018 1825631783 1098830556 -541224695 -964324260 -1287674273
REM
REM S 3|1.8|5|6|7|30:31:32(qc=5)
REM O 2|1.5|12|13|15|20:21(qc=5)
REM Li 1|1.3|8|9|10|10U:20(qc=5)
REM Fe 3|2.2|2.0|1.0|8|9|10|40:41:32(qc=5)
REM 
CELL 1.54180    6.07224    6.07224    6.07224   96.21130   96.21130   96.21130
LATT -1
SFAC Li O  S  Fe 
Li     1  0.3285280000000  0.1762560000000 -0.4269470000000 1.0   0.05
Li     1  0.1762560000000 -0.4269470000000  0.3285280000000 1.0   0.05
Li     1 -0.4269470000000  0.3285280000000  0.1762560000000 1.0   0.05
O      2 -0.1651020000000 -0.1651020000000 -0.1651020000000 1.0  -0.10
S      3  0.4509250000000 -0.3222330000000  0.0299710000000 1.0   0.02
S      3 -0.3222330000000  0.0299710000000  0.4509250000000 1.0   0.02
S      3  0.0299710000000  0.4509250000000 -0.3222330000000 1.0   0.02
S      3  0.5323060000000  0.5323060000000  0.5323060000000 1.0   0.40
S      3  0.1174760000000  0.1174760000000  0.1174760000000 1.0  -0.03
Fe     4  0.1232410000000 -0.2266340000000 -0.0870090000000 1.0  -2.19
Fe     4 -0.2266340000000 -0.0870090000000  0.1232410000000 1.0  -2.19
Fe     4 -0.0870090000000  0.1232410000000 -0.2266340000000 1.0  -2.19
END
