TITL LFSO-Li3FeS2O-200911-180714-24b3a9 0.0861 355.581589 -7.52744583E+003 8.99959 9.73749 21 (R3) n - 1
REM
REM Run started: Sat, 12 Sep 2020 08:04:45 +0100 in /lustre/scratch/uccabz1/launch_tmp/launcher_2020-09-11-17-07-12-668454
REM CASTEP 20.1 from code version af48c487+ pr-geom-scf-spinfix Tue Jun 2 15:39:59 2020 +0100
REM Functional Perdew Burke Ernzerhof Relativity Koelling-Harmon Dispersion off
REM Cut-off 340.0000 eV Grid scale 1.7500 Gmax 16.5316 1/A FBSC none
REM MP grid 3 3 4 Offset 0.000 0.000 0.000 No. kpts 14 Spacing 0.07
REM Total runtime: 50598.6 s
REM Overall efficiency: 94.9 %
REM
REM
REM
REM compiler GCC version 4.9.2
REM options -cpp -iprefix /lustre/shared/ucl/apps/gcc/4.9.2/bin/../lib/gcc/x86_64-unknown-linux-gnu/4.9.2/ -mtune=corei7 -march=x86-64 -g -Og
REM COMMAND_LINE
REM seed -128309080 1826946005 -1414761117 176990862 1044592473 -907050114 -313442145 -133782264 -1581849095 2044028627 -607886364 237196727
REM
REM S 3|1.8|5|6|7|30:31:32(qc=5)
REM O 2|1.5|12|13|15|20:21(qc=5)
REM Li 1|1.3|8|9|10|10U:20(qc=5)
REM Fe 3|2.2|2.0|1.0|8|9|10|40:41:32(qc=5)
REM 
CELL 1.54180    9.67193    9.67193    7.10260   47.08808   47.08808   60.00000
LATT -1
SFAC Li O  S  Fe 
Li     1 -0.0279050000000 -0.3529030000000 -0.0079800000000 1.0   0.01
Li     1 -0.3529030000000  0.3887880000000 -0.0079800000000 1.0   0.01
Li     1  0.3887880000000 -0.0279050000000 -0.0079800000000 1.0   0.01
Li     1  0.2898840000000 -0.4235370000000  0.4208880000000 1.0  -0.00
Li     1 -0.4235370000000 -0.2872350000000  0.4208880000000 1.0  -0.00
Li     1 -0.2872350000000  0.2898840000000  0.4208880000000 1.0  -0.00
Li     1  0.6465190000000  0.0180870000000  0.4542070000000 1.0   0.01
Li     1  0.0180870000000 -0.1188130000000  0.4542070000000 1.0   0.01
Li     1 -0.1188130000000  0.6465190000000  0.4542070000000 1.0   0.01
O      2 -0.1581940000000  0.1549110000000  0.0510630000000 1.0   0.17
O      2  0.1549110000000 -0.0477800000000  0.0510630000000 1.0   0.17
O      2 -0.0477800000000 -0.1581940000000  0.0510630000000 1.0   0.17
S      3 -0.2626900000000 -0.0431270000000 -0.1863770000000 1.0   0.04
S      3 -0.0431270000000 -0.5078060000000 -0.1863770000000 1.0   0.04
S      3 -0.5078060000000 -0.2626900000000 -0.1863770000000 1.0   0.04
S      3  0.3991690000000  0.2690630000000 -0.4602740000000 1.0   0.07
S      3  0.2690630000000 -0.2079580000000 -0.4602740000000 1.0   0.07
S      3 -0.2079580000000  0.3991690000000 -0.4602740000000 1.0   0.07
Fe     4  0.2072400000000 -0.1499150000000 -0.1443470000000 1.0   2.71
Fe     4 -0.1499150000000  0.0870220000000 -0.1443470000000 1.0   2.71
Fe     4  0.0870220000000  0.2072400000000 -0.1443470000000 1.0   2.71
END
