TITL LFSO-Li3Fe3S4O2-200928-214258-12fa5b 0.0121 447.341247 -1.05654665E+004 14.3438 15.1486 24 (I-4) n - 1
REM
REM Run started: Tue, 29 Sep 2020 19:36:26 +0100 in /lustre/scratch/uccabz1/launch_tmp/launcher_2020-09-29-08-31-44-856566
REM CASTEP 20.1 from code version af48c487+ pr-geom-scf-spinfix Tue Jun 2 15:39:59 2020 +0100
REM Functional Perdew Burke Ernzerhof Relativity Koelling-Harmon Dispersion off
REM Cut-off 340.0000 eV Grid scale 1.7500 Gmax 16.5316 1/A FBSC none
REM MP grid 3 3 3 Offset 0.000 0.000 0.000 No. kpts 6 Spacing 0.07
REM Total runtime: 69968.7 s
REM Overall efficiency: 98.6154 %
REM
REM
REM
REM compiler GCC version 4.9.2
REM options -cpp -iprefix /lustre/shared/ucl/apps/gcc/4.9.2/bin/../lib/gcc/x86_64-unknown-linux-gnu/4.9.2/ -mtune=corei7 -march=x86-64 -g -Og
REM COMMAND_LINE
REM seed -298086432 -912097610 -1014391319 -158064169 490509231 -2140984474 971036865 1541866610 -86098727 -1231245359 1042249646 354868118
REM
REM S 3|1.8|5|6|7|30:31:32(qc=5)
REM O 2|1.5|12|13|15|20:21(qc=5)
REM Li 1|1.3|8|9|10|10U:20(qc=5)
REM Fe 3|2.2|2.0|1.0|8|9|10|40:41:32(qc=5)
REM 
CELL 1.54180    9.28930    9.28930    9.28930   71.90436  130.94256  130.94256
LATT -1
SFAC Li O  S  Fe 
Li     1 -0.3784280000000  0.2703660000000  0.2902440000000 1.0   0.03
Li     1  0.3784300000000 -0.3313280000000 -0.3512050000000 1.0   0.03
Li     1 -0.0198770000000 -0.2902440000000  0.3313280000000 1.0   0.03
Li     1  0.0198790000000  0.3512050000000 -0.2703660000000 1.0   0.03
Li     1  0.5000010000000 -0.0103670000000  0.4896340000000 1.0   0.00
Li     1  0.5000010000000 -0.4896340000000  0.0103670000000 1.0   0.00
O      2  0.2293800000000 -0.2798170000000  0.3933480000000 1.0   0.23
O      2 -0.2293780000000  0.1639680000000 -0.5091940000000 1.0   0.23
O      2  0.3268370000000 -0.3933480000000 -0.1639680000000 1.0   0.23
O      2 -0.3268350000000  0.5091940000000  0.2798170000000 1.0   0.23
S      3  0.1715340000000 -0.5413700000000  0.1462570000000 1.0   0.02
S      3 -0.1715320000000 -0.0252780000000  0.2870980000000 1.0   0.02
S      3 -0.6876240000000 -0.1462570000000  0.0252780000000 1.0   0.02
S      3  0.6876260000000 -0.2870980000000  0.5413700000000 1.0   0.02
S      3  0.1903880000000  0.1563190000000 -0.1631400000000 1.0   0.17
S      3 -0.1903860000000 -0.3535270000000 -0.0340670000000 1.0   0.17
S      3  0.3194600000000  0.1631400000000  0.3535270000000 1.0   0.17
S      3 -0.3194580000000  0.0340670000000 -0.1563190000000 1.0   0.17
Fe     4 -0.1385610000000  0.0250640000000 -0.4655690000000 1.0   2.25
Fe     4  0.1385630000000 -0.3270080000000  0.1636270000000 1.0   2.25
Fe     4 -0.5093650000000  0.4655690000000  0.3270080000000 1.0   2.25
Fe     4  0.5093670000000 -0.1636270000000 -0.0250640000000 1.0   2.25
Fe     4  0.0000010000000  0.1535580000000  0.1535590000000 1.0   1.77
Fe     4  0.0000010000000 -0.1535590000000 -0.1535580000000 1.0   1.77
END
