TITL LFSO-Li4Fe2S3O-200911-031913-d95adc -0.0254 168.353528 -3.87702382E+003 7.99468 8.05846 10 (Fmm2) n - 1
REM
REM Run started: Fri, 11 Sep 2020 04:49:38 +0100 in /lustre/scratch/uccabz1/launch_tmp/launcher_2020-09-11-02-19-11-497577
REM CASTEP 20.1 from code version af48c487+ pr-geom-scf-spinfix Tue Jun 2 15:39:59 2020 +0100
REM Functional Perdew Burke Ernzerhof Relativity Koelling-Harmon Dispersion off
REM Cut-off 340.0000 eV Grid scale 1.7500 Gmax 16.5316 1/A FBSC none
REM MP grid 3 3 3 Offset 0.000 0.000 0.000 No. kpts 10 Spacing 0.07
REM Total runtime: 5655.59 s
REM Overall efficiency: 90 %
REM
REM
REM
REM compiler GCC version 4.9.2
REM options -cpp -iprefix /lustre/shared/ucl/apps/gcc/4.9.2/bin/../lib/gcc/x86_64-unknown-linux-gnu/4.9.2/ -mtune=corei7 -march=x86-64 -g -Og
REM COMMAND_LINE
REM seed -794027716 1862198559 -1470896779 836866329 514760996 82584056 1989493197 -654891354 1044769897 1054775304 -1827272143 -1357966106
REM
REM S 3|1.8|5|6|7|30:31:32(qc=5)
REM O 2|1.5|12|13|15|20:21(qc=5)
REM Li 1|1.3|8|9|10|10U:20(qc=5)
REM Fe 3|2.2|2.0|1.0|8|9|10|40:41:32(qc=5)
REM 
CELL 1.54180    5.67147    5.64660    6.49855  112.74864  112.88055   96.28383
LATT -1
SFAC Li O  S  Fe 
Li     1 -0.1993290000000  0.1335390000000  0.2343040000000 1.0  -0.02
Li     1 -0.4336330000000 -0.1007650000000 -0.2343040000000 1.0  -0.02
Li     1  0.3910810000000 -0.2638620000000  0.2365690000000 1.0  -0.02
Li     1  0.1545110000000  0.4995680000000 -0.2365690000000 1.0  -0.02
O      2  0.4099150000000 -0.1103820000000  0.0000000000000 1.0   0.24
S      3 -0.2714530000000 -0.4246710000000  0.4955510000000 1.0   0.25
S      3  0.2329960000000  0.0797790000000 -0.4955510000000 1.0   0.25
S      3 -0.0098820000000  0.3090350000000  0.0000000000000 1.0   0.29
Fe     4  0.0952030000000 -0.0373920000000 -0.2464700000000 1.0   3.52
Fe     4  0.3416720000000  0.2090770000000  0.2464700000000 1.0   3.52
END
