TITL LFSO-Li2Fe4S4O-200911-230334-00f693 -0.0397 155.954680 -5.50143267E+003 -0.143010E-01 1.05331 11 (P4) n - 1
REM
REM Run started: Sat, 12 Sep 2020 00:31:10 +0100 in /lustre/scratch/uccabz1/launch_tmp/launcher_2020-09-11-22-03-31-751898
REM CASTEP 20.1 from code version af48c487+ pr-geom-scf-spinfix Tue Jun 2 15:39:59 2020 +0100
REM Functional Perdew Burke Ernzerhof Relativity Koelling-Harmon Dispersion off
REM Cut-off 340.0000 eV Grid scale 1.7500 Gmax 16.5316 1/A FBSC none
REM MP grid 5 3 3 Offset 0.000 0.000 0.000 No. kpts 9 Spacing 0.07
REM Total runtime: 5584.11 s
REM Overall efficiency: 95.6667 %
REM
REM
REM
REM compiler GCC version 4.9.2
REM options -cpp -iprefix /lustre/shared/ucl/apps/gcc/4.9.2/bin/../lib/gcc/x86_64-unknown-linux-gnu/4.9.2/ -mtune=corei7 -march=x86-64 -g -Og
REM COMMAND_LINE
REM seed 1789041075 905283012 167283075 389193888 1932519919 -40231034 -2042834283 1457501759 -227861240 1393303497 -540518685 -522933833
REM
REM S 3|1.8|5|6|7|30:31:32(qc=5)
REM O 2|1.5|12|13|15|20:21(qc=5)
REM Li 1|1.3|8|9|10|10U:20(qc=5)
REM Fe 3|2.2|2.0|1.0|8|9|10|40:41:32(qc=5)
REM 
CELL 1.54180    3.41409    6.75867    6.75867   90.00000   90.00000   90.00000
LATT -1
SFAC Li O  S  Fe 
Li     1 -0.3655290000000 -0.0000000000000 -0.5000000000000 1.0   0.00
Li     1 -0.3655290000000 -0.5000000000000  0.0000000000000 1.0   0.00
O      2  0.5865930000000  0.5000000000000 -0.5000000000000 1.0  -0.00
S      3 -0.3902980000000 -0.2346170000000  0.2400960000000 1.0   0.00
S      3 -0.3902980000000  0.2346170000000 -0.2400960000000 1.0   0.00
S      3 -0.3902980000000 -0.2400960000000 -0.2346170000000 1.0   0.00
S      3 -0.3902980000000  0.2400960000000  0.2346170000000 1.0   0.00
Fe     4  0.1121460000000 -0.0122490000000 -0.2325210000000 1.0  -0.01
Fe     4  0.1121460000000  0.0122490000000  0.2325210000000 1.0  -0.01
Fe     4  0.1121460000000  0.2325210000000 -0.0122490000000 1.0  -0.01
Fe     4  0.1121460000000 -0.2325210000000  0.0122490000000 1.0  -0.01
END
