TITL LFSO-Li2Fe3S2O2-200921-034047-5543d4 -0.0279 281.570993 -8.94442995E+003 0.521133E-04 0.772926E-02 18 (Cmmm) n - 1
REM
REM Run started: Mon, 21 Sep 2020 14:46:32 +0100 in /lustre/scratch/uccabz1/launch_tmp/launcher_2020-09-21-13-27-49-931531
REM CASTEP 20.1 from code version af48c487+ pr-geom-scf-spinfix Tue Jun 2 15:39:59 2020 +0100
REM Functional Perdew Burke Ernzerhof Relativity Koelling-Harmon Dispersion off
REM Cut-off 340.0000 eV Grid scale 1.7500 Gmax 16.5316 1/A FBSC none
REM MP grid 4 4 2 Offset 0.000 0.000 0.000 No. kpts 8 Spacing 0.07
REM Total runtime: 37851.3 s
REM Overall efficiency: 91.0909 %
REM
REM
REM
REM compiler GCC version 4.9.2
REM options -cpp -iprefix /lustre/shared/ucl/apps/gcc/4.9.2/bin/../lib/gcc/x86_64-unknown-linux-gnu/4.9.2/ -mtune=corei7 -march=x86-64 -g -Og
REM COMMAND_LINE
REM seed -393345862 -448776565 2051514754 605694178 -2142068392 931496382 2053134823 1420016780 2040722979 12917665 -1196544645 -340098566
REM
REM S 3|1.8|5|6|7|30:31:32(qc=5)
REM O 2|1.5|12|13|15|20:21(qc=5)
REM Li 1|1.3|8|9|10|10U:20(qc=5)
REM Fe 3|2.2|2.0|1.0|8|9|10|40:41:32(qc=5)
REM 
CELL 1.54180    4.85893    4.87994   12.60265   90.00000   90.00000   70.43477
LATT -1
SFAC Li O  S  Fe 
Li     1 -0.2437140000000 -0.2422930000000  0.2464990000000 1.0
Li     1  0.2437140000000  0.2422930000000  0.2464990000000 1.0
Li     1  0.2437140000000  0.2422930000000 -0.2464990000000 1.0
Li     1 -0.2437140000000 -0.2422930000000 -0.2464990000000 1.0
O      2  0.1865120000000  0.1849300000000 -0.3945480000000 1.0
O      2 -0.1865120000000 -0.1849300000000 -0.3945480000000 1.0
O      2 -0.1865120000000 -0.1849300000000  0.3945480000000 1.0
O      2  0.1865120000000  0.1849300000000  0.3945480000000 1.0
S      3  0.2674310000000 -0.2678820000000 -0.2204640000000 1.0
S      3 -0.2674310000000  0.2678820000000 -0.2204640000000 1.0
S      3 -0.2674310000000  0.2678820000000  0.2204640000000 1.0
S      3  0.2674310000000 -0.2678820000000  0.2204640000000 1.0
Fe     4  0.2082410000000 -0.2080570000000 -0.3939220000000 1.0
Fe     4 -0.2082410000000  0.2080570000000 -0.3939220000000 1.0
Fe     4 -0.2082410000000  0.2080570000000  0.3939220000000 1.0
Fe     4  0.2082410000000 -0.2080570000000  0.3939220000000 1.0
Fe     4 -0.3492280000000 -0.3517120000000 -0.5000000000000 1.0
Fe     4  0.3492280000000  0.3517120000000 -0.5000000000000 1.0
END
