TITL LFSO-Li3Fe3S5O-200929-121125-0f0412 0.0114 431.225681 -1.02940935E+004 -17.8960 18.3649 24 (P3) n - 1
REM
REM Run started: Wed, 30 Sep 2020 06:32:14 +0100 in /lustre/scratch/uccabz1/launch_tmp/launcher_2020-09-29-11-11-23-956136
REM CASTEP 20.1 from code version af48c487+ pr-geom-scf-spinfix Tue Jun 2 15:39:59 2020 +0100
REM Functional Perdew Burke Ernzerhof Relativity Koelling-Harmon Dispersion off
REM Cut-off 340.0000 eV Grid scale 1.7500 Gmax 16.5316 1/A FBSC none
REM MP grid 3 2 2 Offset 0.000 0.000 0.000 No. kpts 6 Spacing 0.07
REM Total runtime: 66373.7 s
REM Overall efficiency: 98.5 %
REM
REM
REM
REM compiler GCC version 4.9.2
REM options -cpp -iprefix /lustre/shared/ucl/apps/gcc/4.9.2/bin/../lib/gcc/x86_64-unknown-linux-gnu/4.9.2/ -mtune=corei7 -march=x86-64 -g -Og
REM COMMAND_LINE
REM seed -1180977519 -494837176 -221200573 548868170 1191287673 1239561874 -1231446832 1350862719 1154921962 1146348945 639213545 1274038917
REM
REM S 3|1.8|5|6|7|30:31:32(qc=5)
REM O 2|1.5|12|13|15|20:21(qc=5)
REM Li 1|1.3|8|9|10|10U:20(qc=5)
REM Fe 3|2.2|2.0|1.0|8|9|10|40:41:32(qc=5)
REM 
CELL 1.54180    5.47690    9.53497    9.53497  120.00000   90.00000   90.00000
LATT -1
SFAC Li O  S  Fe 
Li     1  0.3524460000000  0.0723690000000  0.1763050000000 1.0   0.03
Li     1  0.3524460000000  0.1039360000000 -0.0723690000000 1.0   0.03
Li     1  0.3524460000000 -0.1763050000000 -0.1039360000000 1.0   0.03
Li     1 -0.3468900000000 -0.1110820000000  0.5040620000000 1.0   0.02
Li     1 -0.3468900000000 -0.3848560000000  0.1110820000000 1.0   0.02
Li     1 -0.3468900000000 -0.5040620000000  0.3848560000000 1.0   0.02
O      2 -0.4155690000000  0.0000000000000 -0.0000000000000 1.0  -0.33
O      2  0.0834090000000  0.0000000000000 -0.0000000000000 1.0  -0.09
S      3  0.5453770000000 -0.2704590000000 -0.3676620000000 1.0  -0.16
S      3  0.5453770000000 -0.0972040000000  0.2704590000000 1.0  -0.16
S      3  0.5453770000000  0.3676620000000  0.0972040000000 1.0  -0.16
S      3  0.2117860000000  0.0916600000000 -0.3216280000000 1.0  -0.17
S      3  0.2117860000000 -0.4132870000000 -0.0916600000000 1.0  -0.17
S      3  0.2117860000000  0.3216280000000  0.4132870000000 1.0  -0.17
S      3 -0.1380800000000  0.6884940000000 -0.0873360000000 1.0   0.02
S      3 -0.1380800000000  0.2241690000000 -0.6884940000000 1.0   0.02
S      3 -0.1380800000000  0.0873360000000 -0.2241690000000 1.0   0.02
S      3  0.0200340000000 -0.3333330000000  0.3333330000000 1.0  -0.21
Fe     4 -0.1480150000000  0.1801570000000  0.0520920000000 1.0  -2.09
Fe     4 -0.1480150000000 -0.1280660000000 -0.1801570000000 1.0  -2.09
Fe     4 -0.1480150000000 -0.0520920000000  0.1280660000000 1.0  -2.09
Fe     4  0.1879230000000  0.4064000000000  0.2307350000000 1.0  -3.40
Fe     4  0.1879230000000 -0.1756650000000 -0.4064000000000 1.0  -3.40
Fe     4  0.1879230000000 -0.2307350000000  0.1756650000000 1.0  -3.40
END
