TITL LFSO-Li4Fe3SO4-200928-045623-72d15c -0.0291 161.272474 -5.44544993E+003 11.7683 11.9375 12 (C2) n - 1
REM
REM Run started: Mon, 28 Sep 2020 09:42:33 +0100 in /scratch/scratch/uccabz1/launch_tmp/launcher_2020-09-28-03-56-20-345435
REM CASTEP 19.11| from code version Version unavailable
REM Functional Perdew Burke Ernzerhof Relativity Koelling-Harmon Dispersion off
REM Cut-off 340.0000 eV Grid scale 1.7500 Gmax 16.5316 1/A FBSC none
REM MP grid 4 4 3 Offset 0.000 0.000 0.000 No. kpts 16 Spacing 0.07
REM Total runtime: 17272.4 s
REM Overall efficiency: 89.5833 %
REM
REM
REM
REM compiler GCC version 4.9.2
REM options -cpp -iprefix /scratch/UCL/applications/gcc/4.9.2/bin/../lib/gcc/x86_64-unknown-linux-gnu/4.9.2/ -mtune=corei7 -march=x86-64 -g -O2
REM COMMAND_LINE
REM seed -789689052 -916425666 777752769 -1468452223 420853672 182642310 -53801918 -900125067 690293007 121929422 -2035132937 -27107231
REM
REM S 3|1.8|5|6|7|30:31:32(qc=5)
REM O 2|1.5|12|13|15|20:21(qc=5)
REM Li 1|1.3|8|9|10|10U:20(qc=5)
REM Fe 3|2.2|2.0|1.0|8|9|10|40:41:32(qc=5)
REM 
CELL 1.54180    5.28369    5.28369    7.64587  107.48046  107.48046  114.61810
LATT -1
SFAC Li O  S  Fe 
Li     1  0.1131090000000  0.2825960000000  0.5003320000000 1.0  -0.03
Li     1 -0.2825960000000 -0.1131090000000 -0.5003320000000 1.0  -0.03
Li     1 -0.2402030000000  0.2980770000000  0.2037890000000 1.0  -0.06
Li     1 -0.2980770000000  0.2402030000000 -0.2037890000000 1.0  -0.06
O      2 -0.1892420000000 -0.3568440000000 -0.0366780000000 1.0   0.32
O      2  0.3568440000000  0.1892420000000  0.0366780000000 1.0   0.32
O      2  0.0335550000000  0.3367960000000 -0.2737670000000 1.0   0.25
O      2 -0.3367960000000 -0.0335550000000  0.2737670000000 1.0   0.25
S      3  0.2024980000000 -0.2024980000000  0.5000000000000 1.0   0.10
Fe     4  0.1263880000000 -0.2384040000000 -0.1822680000000 1.0   3.50
Fe     4  0.2384040000000 -0.1263880000000  0.1822680000000 1.0   3.50
Fe     4  0.4344050000000 -0.4344050000000  0.0000000000000 1.0   3.70
END
