TITL LFSO-Li4FeSO2-200910-083359-9ca62c 0.0021 205.888387 -5.68641036E+003 7.99999 8.12054 16 (I212121) n - 1
REM
REM Run started: Thu, 10 Sep 2020 12:37:14 +0100 in /lustre/scratch/uccabz1/launch_tmp/launcher_2020-09-10-07-33-57-558350
REM CASTEP 20.1 from code version af48c487+ pr-geom-scf-spinfix Tue Jun 2 15:39:59 2020 +0100
REM Functional Perdew Burke Ernzerhof Relativity Koelling-Harmon Dispersion off
REM Cut-off 340.0000 eV Grid scale 1.7500 Gmax 16.5316 1/A FBSC none
REM MP grid 5 5 2 Offset 0.000 0.000 0.000 No. kpts 25 Spacing 0.07
REM Total runtime: 17689.8 s
REM Overall efficiency: 97.8571 %
REM
REM
REM
REM compiler GCC version 4.9.2
REM options -cpp -iprefix /lustre/shared/ucl/apps/gcc/4.9.2/bin/../lib/gcc/x86_64-unknown-linux-gnu/4.9.2/ -mtune=corei7 -march=x86-64 -g -Og
REM COMMAND_LINE
REM seed -1398227524 -390393087 1374072768 -1686222485 1498791505 1539053068 -1684125912 894264969 -920584967 -1356405774 -1744068095 -1558311188
REM
REM S 3|1.8|5|6|7|30:31:32(qc=5)
REM O 2|1.5|12|13|15|20:21(qc=5)
REM Li 1|1.3|8|9|10|10U:20(qc=5)
REM Fe 3|2.2|2.0|1.0|8|9|10|40:41:32(qc=5)
REM 
CELL 1.54180    7.67116    7.67116    7.67116   92.67347   94.05768  151.95705
LATT -1
SFAC Li O  S  Fe 
Li     1 -0.3858770000000 -0.5179960000000 -0.4633350000000 1.0  -0.01
Li     1 -0.1141230000000 -0.0774580000000  0.3678810000000 1.0  -0.01
Li     1 -0.4453390000000  0.0179960000000  0.1321190000000 1.0  -0.01
Li     1 -0.0546610000000 -0.4225420000000 -0.0366650000000 1.0  -0.01
Li     1  0.2560190000000  0.1193100000000 -0.1433900000000 1.0   0.02
Li     1  0.2439810000000 -0.3994090000000 -0.6367090000000 1.0   0.02
Li     1  0.2373000000000  0.3806900000000  0.1367090000000 1.0   0.02
Li     1  0.2627000000000 -0.1005910000000 -0.3566100000000 1.0   0.02
O      2  0.4269200000000  0.0347420000000 -0.1009770000000 1.0   0.14
O      2  0.0730800000000 -0.5278970000000  0.1078220000000 1.0   0.14
O      2  0.3642800000000  0.4652580000000  0.3921780000000 1.0   0.14
O      2  0.1357200000000  0.0278970000000 -0.3990230000000 1.0   0.14
S      3 -0.3138750000000 -0.2500000000000 -0.0638750000000 1.0   0.18
S      3 -0.1861250000000  0.2500000000000  0.5638750000000 1.0   0.18
Fe     4 -0.2500000000000  0.1013740000000 -0.1486260000000 1.0   3.52
Fe     4  0.2500000000000  0.3986260000000 -0.3513740000000 1.0   3.52
END
