TITL LFSO-Li4Fe2S2O3-200911-102229-ba072d -0.0226 222.724391 -4.44351628E+003 6.60760 8.35443 11 (P4mm) n - 1
REM
REM Run started: Sat, 12 Sep 2020 02:51:03 +0100 in /lustre/scratch/uccabz1/launch_tmp/launcher_2020-09-11-09-22-27-704347
REM CASTEP 20.1 from code version af48c487+ pr-geom-scf-spinfix Tue Jun 2 15:39:59 2020 +0100
REM Functional Perdew Burke Ernzerhof Relativity Koelling-Harmon Dispersion off
REM Cut-off 340.0000 eV Grid scale 1.7500 Gmax 16.5316 1/A FBSC none
REM MP grid 3 3 3 Offset 0.000 0.000 0.000 No. kpts 6 Spacing 0.07
REM Total runtime: 53696.5 s
REM Overall efficiency: 95.375 %
REM
REM
REM
REM compiler GCC version 4.9.2
REM options -cpp -iprefix /lustre/shared/ucl/apps/gcc/4.9.2/bin/../lib/gcc/x86_64-unknown-linux-gnu/4.9.2/ -mtune=corei7 -march=x86-64 -g -Og
REM COMMAND_LINE
REM seed 2137791799 1441991792 1891540386 -252147011 440238328 -1068462410 -775079140 1598791836 1738898065 -1210671355 1842028082 -2056611707
REM
REM S 3|1.8|5|6|7|30:31:32(qc=5)
REM O 2|1.5|12|13|15|20:21(qc=5)
REM Li 1|1.3|8|9|10|10U:20(qc=5)
REM Fe 3|2.2|2.0|1.0|8|9|10|40:41:32(qc=5)
REM 
CELL 1.54180    5.72116    5.72116    6.80455   90.00000   90.00000   90.00000
LATT -1
SFAC Li O  S  Fe 
Li     1 -0.2222090000000  0.2222090000000 -0.3213480000000 1.0   0.02
Li     1  0.2222090000000 -0.2222090000000 -0.3213480000000 1.0   0.02
Li     1  0.2222090000000  0.2222090000000 -0.3213480000000 1.0   0.02
Li     1 -0.2222090000000 -0.2222090000000 -0.3213480000000 1.0   0.02
O      2 -0.5000000000000 -0.0000000000000  0.4959870000000 1.0   0.24
O      2  0.0000000000000  0.5000000000000  0.4959870000000 1.0   0.24
O      2  0.0000000000000 -0.0000000000000 -0.3234480000000 1.0  -0.52
S      3  0.0000000000000 -0.5000000000000 -0.0694540000000 1.0  -0.22
S      3 -0.5000000000000 -0.0000000000000 -0.0694540000000 1.0  -0.22
Fe     4  0.5000000000000 -0.0000000000000  0.2430380000000 1.0   3.51
Fe     4  0.0000000000000 -0.5000000000000  0.2430380000000 1.0   3.51
END
