TITL LFSO-Li4Fe2S4O-200910-191733-1a29b0 -0.0151 472.487246 -8.35059940E+003 -10.9098 11.6368 22 (P3) n - 1
REM
REM Run started: Sat, 12 Sep 2020 14:42:29 +0100 in /lustre/scratch/uccabz1/launch_tmp/launcher_2020-09-12-06-54-12-476865
REM CASTEP 20.1 from code version af48c487+ pr-geom-scf-spinfix Tue Jun 2 15:39:59 2020 +0100
REM Functional Perdew Burke Ernzerhof Relativity Koelling-Harmon Dispersion off
REM Cut-off 340.0000 eV Grid scale 1.7500 Gmax 16.5316 1/A FBSC none
REM MP grid 3 3 2 Offset 0.000 0.000 0.000 No. kpts 5 Spacing 0.07
REM Total runtime: 148378 s
REM Overall efficiency: 78 %
REM
REM
REM
REM compiler GCC version 4.9.2
REM options -cpp -iprefix /lustre/shared/ucl/apps/gcc/4.9.2/bin/../lib/gcc/x86_64-unknown-linux-gnu/4.9.2/ -mtune=corei7 -march=x86-64 -g -Og
REM COMMAND_LINE
REM seed -1043255616 -1295199558 817525790 -1153155638 539800615 -1436351853 1844101881 810636809 226872516 -5826304 -1967451040 1219280526
REM
REM S 3|1.8|5|6|7|30:31:32(qc=5)
REM O 2|1.5|12|13|15|20:21(qc=5)
REM Li 1|1.3|8|9|10|10U:20(qc=5)
REM Fe 3|2.2|2.0|1.0|8|9|10|40:41:32(qc=5)
REM 
CELL 1.54180    6.20974    6.20974   14.14858   90.00000   90.00000  120.00000
LATT -1
SFAC Li O  S  Fe 
Li     1  0.4802110000000  0.0030180000000  0.4878040000000 1.0   0.06
Li     1  0.5228060000000 -0.4802110000000  0.4878040000000 1.0   0.06
Li     1 -0.0030180000000 -0.5228060000000  0.4878040000000 1.0   0.06
Li     1  0.1021210000000  0.6596590000000  0.0003510000000 1.0   0.06
Li     1 -0.4424630000000 -0.1021210000000  0.0003510000000 1.0   0.06
Li     1 -0.6596590000000  0.4424630000000  0.0003510000000 1.0   0.06
Li     1 -0.0000000000000  0.0000000000000 -0.2893400000000 1.0  -0.04
Li     1  0.3333330000000 -0.3333330000000 -0.2216120000000 1.0   0.02
O      2  0.3333330000000 -0.3333330000000 -0.0909630000000 1.0  -0.12
O      2 -0.0000000000000  0.0000000000000  0.0452650000000 1.0  -0.43
S      3 -0.3306230000000 -0.2691270000000  0.3420070000000 1.0  -0.07
S      3  0.0614950000000  0.3306230000000  0.3420070000000 1.0  -0.07
S      3  0.2691270000000 -0.0614950000000  0.3420070000000 1.0  -0.07
S      3 -0.3422640000000 -0.3525900000000 -0.3561060000000 1.0  -0.01
S      3 -0.0103280000000  0.3422640000000 -0.3561060000000 1.0  -0.01
S      3  0.3525900000000  0.0103280000000 -0.3561060000000 1.0  -0.01
S      3  0.3333330000000 -0.3333330000000  0.1383060000000 1.0  -0.51
S      3 -0.3333340000000  0.3333340000000 -0.3016940000000 1.0  -0.00
Fe     4  0.4180060000000  0.3349450000000  0.3194760000000 1.0  -2.19
Fe     4 -0.0830620000000 -0.4180060000000  0.3194760000000 1.0  -2.19
Fe     4 -0.3349450000000  0.0830620000000  0.3194760000000 1.0  -2.19
Fe     4 -0.0000000000000  0.0000000000000 -0.0713460000000 1.0  -3.38
END
