TITL LFSO-Li4Fe2SO4-200910-161027-d55c65 -0.0210 176.122427 -4.58325984E+003 9.94049 9.97475 11 (Cm) n - 1
REM
REM Run started: Thu, 10 Sep 2020 19:01:41 +0100 in /lustre/scratch/uccabz1/launch_tmp/launcher_2020-09-10-15-10-25-677204
REM CASTEP 20.1 from code version af48c487+ pr-geom-scf-spinfix Tue Jun 2 15:39:59 2020 +0100
REM Functional Perdew Burke Ernzerhof Relativity Koelling-Harmon Dispersion off
REM Cut-off 340.0000 eV Grid scale 1.7500 Gmax 16.5316 1/A FBSC none
REM MP grid 4 4 3 Offset 0.000 0.000 0.000 No. kpts 16 Spacing 0.07
REM Total runtime: 11206.7 s
REM Overall efficiency: 96.4 %
REM
REM
REM
REM compiler GCC version 4.9.2
REM options -cpp -iprefix /lustre/shared/ucl/apps/gcc/4.9.2/bin/../lib/gcc/x86_64-unknown-linux-gnu/4.9.2/ -mtune=corei7 -march=x86-64 -g -Og
REM COMMAND_LINE
REM seed 2048157303 1045818502 -1071424358 1935094323 1379742036 -876203621 1323008177 230981671 745535233 132315731 -793568951 1104500768
REM
REM S 3|1.8|5|6|7|30:31:32(qc=5)
REM O 2|1.5|12|13|15|20:21(qc=5)
REM Li 1|1.3|8|9|10|10U:20(qc=5)
REM Fe 3|2.2|2.0|1.0|8|9|10|40:41:32(qc=5)
REM 
CELL 1.54180    6.69966    6.69966    5.97668  102.60253  102.60253  129.96708
LATT -1
SFAC Li O  S  Fe 
Li     1 -0.2042770000000  0.0751500000000  0.5552190000000 1.0  -0.02
Li     1  0.0751500000000 -0.2042770000000  0.5552190000000 1.0  -0.02
Li     1  0.2470360000000  0.6626080000000  0.3097270000000 1.0   0.02
Li     1  0.6626080000000  0.2470360000000  0.3097270000000 1.0   0.02
O      2 -0.5099310000000 -0.0539910000000 -0.3113780000000 1.0   0.43
O      2 -0.0539910000000 -0.5099310000000 -0.3113780000000 1.0   0.43
O      2 -0.1228920000000  0.5221560000000  0.2007410000000 1.0   0.42
O      2  0.5221560000000 -0.1228920000000  0.2007410000000 1.0   0.42
S      3  0.3125710000000  0.3125710000000  0.6480530000000 1.0   0.39
Fe     4 -0.3064060000000  0.3594650000000 -0.1492120000000 1.0   3.93
Fe     4  0.3594650000000 -0.3064060000000 -0.1492120000000 1.0   3.93
END
