TITL LFSO-Li4Fe3S4O-200925-210321-b967aa 0.0083 515.885487 -1.00873122E+004 19.8245 20.3882 24 (Aea2) n - 1
REM
REM Run started: Sat, 26 Sep 2020 08:00:56 +0100 in /lustre/scratch/uccabz1/launch_tmp/launcher_2020-09-26-05-41-01-415029
REM CASTEP 20.1 from code version af48c487+ pr-geom-scf-spinfix Tue Jun 2 15:39:59 2020 +0100
REM Functional Perdew Burke Ernzerhof Relativity Koelling-Harmon Dispersion off
REM Cut-off 340.0000 eV Grid scale 1.7500 Gmax 16.5316 1/A FBSC none
REM MP grid 3 3 2 Offset 0.000 0.000 0.000 No. kpts 4 Spacing 0.07
REM Total runtime: 38762.4 s
REM Overall efficiency: 98.7 %
REM
REM
REM
REM compiler GCC version 4.9.2
REM options -cpp -iprefix /lustre/shared/ucl/apps/gcc/4.9.2/bin/../lib/gcc/x86_64-unknown-linux-gnu/4.9.2/ -mtune=corei7 -march=x86-64 -g -Og
REM COMMAND_LINE
REM seed 552407536 1576907508 -1987666068 -1880932478 2006186214 -1695048841 362905651 -1558461899 -1500487483 59638907 1692523709 -1855428243
REM
REM S 3|1.8|5|6|7|30:31:32(qc=5)
REM O 2|1.5|12|13|15|20:21(qc=5)
REM Li 1|1.3|8|9|10|10U:20(qc=5)
REM Fe 3|2.2|2.0|1.0|8|9|10|40:41:32(qc=5)
REM 
CELL 1.54180    7.63761    7.63761   11.32128   90.00000   90.00000  128.63271
LATT -1
SFAC Li O  S  Fe 
Li     1 -0.5483940000000 -0.0064670000000 -0.3553680000000 1.0   0.02
Li     1  0.0064670000000  0.5483940000000  0.3553680000000 1.0   0.02
Li     1  0.5064670000000  0.0483940000000  0.1446320000000 1.0   0.02
Li     1 -0.0483940000000 -0.5064670000000 -0.1446320000000 1.0   0.02
Li     1 -0.6102020000000  0.4101340000000 -0.3763920000000 1.0  -0.06
Li     1 -0.4101340000000  0.6102020000000  0.3763920000000 1.0  -0.06
Li     1  0.0898660000000  0.1102020000000  0.1236080000000 1.0  -0.06
Li     1 -0.1102020000000 -0.0898660000000 -0.1236080000000 1.0  -0.06
O      2 -0.4024780000000  0.4024780000000 -0.0000000000000 1.0   0.27
O      2  0.0975220000000 -0.0975220000000  0.5000000000000 1.0   0.27
S      3 -0.3310690000000 -0.6224990000000 -0.3012050000000 1.0   0.18
S      3  0.6224990000000  0.3310690000000  0.3012050000000 1.0   0.18
S      3  0.1224990000000 -0.1689310000000  0.1987950000000 1.0   0.18
S      3  0.1689310000000 -0.1224990000000 -0.1987950000000 1.0   0.18
S      3  0.1496360000000  0.3143730000000 -0.0981970000000 1.0   0.19
S      3 -0.3143730000000 -0.1496360000000  0.0981970000000 1.0   0.19
S      3  0.1856270000000  0.3503640000000 -0.5981970000000 1.0   0.19
S      3 -0.3503640000000 -0.1856270000000  0.5981970000000 1.0   0.19
Fe     4 -0.0876270000000 -0.2475260000000 -0.3560200000000 1.0   3.30
Fe     4  0.2475260000000  0.0876270000000  0.3560200000000 1.0   3.30
Fe     4 -0.2524740000000 -0.4123730000000  0.1439800000000 1.0   3.30
Fe     4  0.4123730000000  0.2524740000000 -0.1439800000000 1.0   3.30
Fe     4 -0.0351390000000  0.0351390000000 -0.5000000000000 1.0   2.39
Fe     4  0.4648610000000 -0.4648610000000 -0.0000000000000 1.0   2.39
END
