TITL LFSO-Li6FeS3O-200910-003254-a91968 0.0143 371.601078 -6.82512758E+003 -6.39103 6.49659 22 (Cc) n - 1
REM
REM Run started: Thu, 10 Sep 2020 12:30:02 +0100 in /lustre/scratch/uccabz1/launch_tmp/launcher_2020-09-09-23-32-52-554788
REM CASTEP 20.1 from code version af48c487+ pr-geom-scf-spinfix Tue Jun 2 15:39:59 2020 +0100
REM Functional Perdew Burke Ernzerhof Relativity Koelling-Harmon Dispersion off
REM Cut-off 340.0000 eV Grid scale 1.7500 Gmax 16.5316 1/A FBSC none
REM MP grid 5 2 2 Offset 0.000 0.000 0.000 No. kpts 8 Spacing 0.07
REM Total runtime: 47991.2 s
REM Overall efficiency: 98.4167 %
REM
REM
REM
REM compiler GCC version 4.9.2
REM options -cpp -iprefix /lustre/shared/ucl/apps/gcc/4.9.2/bin/../lib/gcc/x86_64-unknown-linux-gnu/4.9.2/ -mtune=corei7 -march=x86-64 -g -Og
REM COMMAND_LINE
REM seed 231133312 1534335720 -304855473 -2075614796 -1715907604 648560524 1963175643 -913683224 -1020904891 -1451287674 21440956 -1161873345
REM
REM S 3|1.8|5|6|7|30:31:32(qc=5)
REM O 2|1.5|12|13|15|20:21(qc=5)
REM Li 1|1.3|8|9|10|10U:20(qc=5)
REM Fe 3|2.2|2.0|1.0|8|9|10|40:41:32(qc=5)
REM 
CELL 1.54180    4.00085   10.67384   10.67384   94.84642  112.89385  112.89385
LATT -1
SFAC Li O  S  Fe 
Li     1  0.4807390000000  0.4694030000000 -0.4348620000000 1.0   0.01
Li     1 -0.0192610000000 -0.4348620000000  0.4694030000000 1.0   0.01
Li     1 -0.4757390000000  0.3349000000000 -0.2557260000000 1.0  -0.02
Li     1 -0.9757390000000 -0.2557260000000  0.3349000000000 1.0  -0.02
Li     1 -0.6553020000000 -0.2308740000000  0.1332780000000 1.0  -0.01
Li     1 -0.1553020000000  0.1332780000000 -0.2308740000000 1.0  -0.01
Li     1  0.0697700000000  0.0160280000000 -0.3822330000000 1.0  -0.00
Li     1 -0.4302300000000 -0.3822330000000  0.0160280000000 1.0  -0.00
Li     1  0.4087730000000 -0.3143790000000 -0.2182220000000 1.0  -0.00
Li     1  0.9087730000000 -0.2182220000000 -0.3143790000000 1.0  -0.00
Li     1 -0.3863820000000  0.1985440000000 -0.0317870000000 1.0  -0.00
Li     1  0.1136180000000 -0.0317870000000  0.1985440000000 1.0  -0.00
O      2  0.3879880000000  0.1629660000000 -0.2194170000000 1.0  -0.01
O      2 -0.1120120000000 -0.2194170000000  0.1629660000000 1.0  -0.01
S      3 -0.0866200000000 -0.3822040000000 -0.1458610000000 1.0  -0.01
S      3  0.4133800000000 -0.1458610000000 -0.3822040000000 1.0  -0.01
S      3 -0.1158760000000  0.3617900000000 -0.4212700000000 1.0  -0.12
S      3 -0.6158760000000 -0.4212700000000  0.3617900000000 1.0  -0.12
S      3 -0.1349920000000  0.1201870000000  0.3029030000000 1.0  -0.16
S      3  0.3650080000000  0.3029030000000  0.1201870000000 1.0  -0.16
Fe     4  0.0385420000000  0.3434060000000  0.2511770000000 1.0  -2.86
Fe     4  0.5385420000000  0.2511770000000  0.3434060000000 1.0  -2.86
END
