TITL LFSO-Li6FeSO3-200909-230850-6567d1 0.0667 295.999434 -7.36168991E+003 8.00000 8.36202 22 (R3) n - 1
REM
REM Run started: Thu, 10 Sep 2020 21:39:31 +0100 in /lustre/scratch/uccabz1/launch_tmp/launcher_2020-09-09-22-08-47-901305
REM CASTEP 20.1 from code version af48c487+ pr-geom-scf-spinfix Tue Jun 2 15:39:59 2020 +0100
REM Functional Perdew Burke Ernzerhof Relativity Koelling-Harmon Dispersion off
REM Cut-off 340.0000 eV Grid scale 1.7500 Gmax 16.5316 1/A FBSC none
REM MP grid 3 3 3 Offset 0.000 0.000 0.000 No. kpts 6 Spacing 0.07
REM Total runtime: 92558.8 s
REM Overall efficiency: 98.5385 %
REM
REM
REM
REM compiler GCC version 4.9.2
REM options -cpp -iprefix /lustre/shared/ucl/apps/gcc/4.9.2/bin/../lib/gcc/x86_64-unknown-linux-gnu/4.9.2/ -mtune=corei7 -march=x86-64 -g -Og
REM COMMAND_LINE
REM seed 108247637 -1331623744 1660842813 -2097378312 -431077351 -640202026 -1052156759 1934598409 -156558253 -1729500846 2063204696 -1263491567
REM
REM S 3|1.8|5|6|7|30:31:32(qc=5)
REM O 2|1.5|12|13|15|20:21(qc=5)
REM Li 1|1.3|8|9|10|10U:20(qc=5)
REM Fe 3|2.2|2.0|1.0|8|9|10|40:41:32(qc=5)
REM 
CELL 1.54180    9.43471    9.43471    9.43471   38.76799   38.76799   38.76799
LATT -1
SFAC Li O  S  Fe 
Li     1 -0.1349320000000 -0.5186350000000  0.2554250000000 1.0  -0.03
Li     1  0.2554250000000 -0.1349320000000 -0.5186350000000 1.0  -0.03
Li     1 -0.5186350000000  0.2554250000000 -0.1349320000000 1.0  -0.03
Li     1 -0.2177080000000  0.1363110000000 -0.6119580000000 1.0  -0.04
Li     1 -0.6119580000000 -0.2177080000000  0.1363110000000 1.0  -0.04
Li     1  0.1363110000000 -0.6119580000000 -0.2177080000000 1.0  -0.04
Li     1  0.2646990000000  0.0817530000000 -0.3014470000000 1.0  -0.02
Li     1 -0.3014470000000  0.2646990000000  0.0817530000000 1.0  -0.02
Li     1  0.0817530000000 -0.3014470000000  0.2646990000000 1.0  -0.02
Li     1 -0.1399150000000  0.3403170000000 -0.3301870000000 1.0   0.00
Li     1 -0.3301870000000 -0.1399150000000  0.3403170000000 1.0   0.00
Li     1  0.3403170000000 -0.3301870000000 -0.1399150000000 1.0   0.00
O      2  0.3814370000000 -0.2498740000000 -0.0335170000000 1.0   0.22
O      2 -0.0335170000000  0.3814370000000 -0.2498740000000 1.0   0.22
O      2 -0.2498740000000 -0.0335170000000  0.3814370000000 1.0   0.22
O      2  0.2906890000000 -0.0344900000000 -0.4345240000000 1.0   0.20
O      2 -0.4345240000000  0.2906890000000 -0.0344900000000 1.0   0.20
O      2 -0.0344900000000 -0.4345240000000  0.2906890000000 1.0   0.20
S      3  0.1526570000000  0.1526570000000  0.1526570000000 1.0   0.01
S      3  0.4819720000000  0.4819720000000  0.4819720000000 1.0   0.00
Fe     4  0.2727730000000  0.2727730000000  0.2727730000000 1.0   3.49
Fe     4 -0.2918330000000 -0.2918330000000 -0.2918330000000 1.0   3.49
END
