TITL LFSO-Li3Fe3S5O-200928-191038-bb04fe -0.7685 519.184907 -1.02949460E+004 -7.66678 17.1816 24 (P-1) n - 1
REM
REM Run started: Wed, 30 Sep 2020 23:17:45 +0100 in /lustre/scratch/uccabz1/launch_tmp/launcher_2020-09-30-20-04-15-956398
REM CASTEP 20.1 from code version af48c487+ pr-geom-scf-spinfix Tue Jun 2 15:39:59 2020 +0100
REM Functional Perdew Burke Ernzerhof Relativity Koelling-Harmon Dispersion off
REM Cut-off 340.0000 eV Grid scale 1.7500 Gmax 16.5316 1/A FBSC none
REM MP grid 3 2 2 Offset 0.000 0.000 0.000 No. kpts 6 Spacing 0.07
REM Total runtime: 164876 s
REM Overall efficiency: 99 %
REM
REM
REM
REM compiler GCC version 4.9.2
REM options -cpp -iprefix /lustre/shared/ucl/apps/gcc/4.9.2/bin/../lib/gcc/x86_64-unknown-linux-gnu/4.9.2/ -mtune=corei7 -march=x86-64 -g -Og
REM COMMAND_LINE
REM seed 1500072084 -1701136516 -2061725932 1689088878 1390315514 -2096735287 -171270794 -94862336 1193789914 1065719439 -161395432 -1358660012
REM
REM S 3|1.8|5|6|7|30:31:32(qc=5)
REM O 2|1.5|12|13|15|20:21(qc=5)
REM Li 1|1.3|8|9|10|10U:20(qc=5)
REM Fe 3|2.2|2.0|1.0|8|9|10|40:41:32(qc=5)
REM 
CELL 1.54180    6.57557    8.87643   11.60746   57.07310   65.92830   76.70817
LATT -1
SFAC Li O  S  Fe 
Li     1  0.3290260000000  0.1635390000000  0.4850420000000 1.0  -0.02
Li     1 -0.3290260000000 -0.1635390000000 -0.4850420000000 1.0  -0.02
Li     1 -0.5821010000000  0.4270060000000 -0.2214670000000 1.0  -0.02
Li     1  0.5821010000000 -0.4270060000000  0.2214670000000 1.0  -0.02
Li     1  0.1663590000000 -0.3914490000000  0.5077230000000 1.0   0.00
Li     1 -0.1663590000000  0.3914490000000 -0.5077230000000 1.0   0.00
O      2 -0.1531300000000  0.6204260000000  0.2102530000000 1.0  -0.46
O      2  0.1531300000000 -0.6204260000000 -0.2102530000000 1.0  -0.46
S      3  0.3106980000000 -0.1113430000000  0.4774530000000 1.0   0.02
S      3 -0.3106980000000  0.1113430000000 -0.4774530000000 1.0   0.02
S      3 -0.5565340000000 -0.2101180000000  0.0093400000000 1.0   0.03
S      3  0.5565340000000  0.2101180000000 -0.0093400000000 1.0   0.03
S      3  0.0007330000000 -0.0372190000000  0.2063120000000 1.0  -0.08
S      3 -0.0007330000000  0.0372190000000 -0.2063120000000 1.0  -0.08
S      3 -0.2153550000000 -0.4621510000000 -0.3543570000000 1.0  -0.15
S      3  0.2153550000000  0.4621510000000  0.3543570000000 1.0  -0.15
S      3 -0.5198730000000 -0.1595180000000  0.3034340000000 1.0   0.06
S      3  0.5198730000000  0.1595180000000 -0.3034340000000 1.0   0.06
Fe     4 -0.3613720000000  0.0499840000000 -0.1237400000000 1.0   2.16
Fe     4  0.3613720000000 -0.0499840000000  0.1237400000000 1.0   2.16
Fe     4 -0.0857340000000  0.2938240000000 -0.1855620000000 1.0  -2.80
Fe     4  0.0857340000000 -0.2938240000000  0.1855620000000 1.0  -2.80
Fe     4  0.2114760000000  0.0161110000000 -0.0802340000000 1.0  -2.58
Fe     4 -0.2114760000000 -0.0161110000000  0.0802340000000 1.0  -2.58
END
