TITL LFSO-Li4Fe3S2O3-201001-210451-dacdd9 0.0042 153.388993 -5.30681979E+003 -9.88992 10.8445 12 (P1) n - 1
REM
REM Run started: Thu, 01 Oct 2020 23:45:39 +0100 in /scratch/scratch/mmm0366/launch_tmp/launcher_2020-10-01-20-04-50-068004
REM CASTEP 19.11| from code version Version unavailable
REM Functional Perdew Burke Ernzerhof Relativity Koelling-Harmon Dispersion off
REM Cut-off 340.0000 eV Grid scale 1.7500 Gmax 16.5316 1/A FBSC none
REM MP grid 4 4 3 Offset 0.000 0.000 0.000 No. kpts 22 Spacing 0.07
REM Total runtime: 11706.3 s
REM Overall efficiency: 69.875 %
REM
REM
REM
REM compiler GCC version 4.9.2
REM options -cpp -iprefix /scratch/UCL/applications/gcc/4.9.2/bin/../lib/gcc/x86_64-unknown-linux-gnu/4.9.2/ -mtune=corei7 -march=x86-64 -g -O2
REM COMMAND_LINE
REM seed 22638391 -861759522 1992236997 -585328192 1747681497 -268828964 1612578656 -1135382120 534408820 1817987113 87743813 524366908
REM
REM S 3|1.8|5|6|7|30:31:32(qc=5)
REM O 2|1.5|12|13|15|20:21(qc=5)
REM Li 1|1.3|8|9|10|10U:20(qc=5)
REM Fe 3|2.2|2.0|1.0|8|9|10|40:41:32(qc=5)
REM 
CELL 1.54180    5.04348    5.04348    7.00585  111.09702  111.09702   90.00000
LATT -1
SFAC Li O  S  Fe 
Li     1 -0.1468480000000  0.1531600000000 -0.2597270000000 1.0   0.08
Li     1 -0.1128790000000 -0.4128870000000 -0.2597270000000 1.0   0.08
Li     1  0.4128870000000  0.1468480000000  0.2597270000000 1.0   0.08
Li     1 -0.1531600000000  0.1128790000000  0.2597270000000 1.0   0.08
O      2 -0.4947870000000  0.0052130000000  0.0104260000000 1.0  -0.32
O      2 -0.0052130000000  0.4947870000000 -0.0104260000000 1.0  -0.32
O      2 -0.2500000000000  0.2500000000000 -0.5000000000000 1.0   0.31
S      3  0.3088980000000  0.3088980000000 -0.3822040000000 1.0  -0.08
S      3 -0.3088980000000 -0.3088980000000  0.3822040000000 1.0  -0.08
Fe     4  0.1440000000000 -0.3560000000000  0.2880000000000 1.0  -3.13
Fe     4  0.3560000000000 -0.1440000000000 -0.2880000000000 1.0  -3.13
Fe     4 -0.5000000000000 -0.5000000000000  0.0000000000000 1.0  -3.42
END
