TITL LFSO-Li2Fe4S3O2-200912-043520-1de2c0 0.0539 159.519873 -5.64052306E+003 7.33597 7.77777 11 (Pm) n - 1
REM
REM Run started: Sat, 12 Sep 2020 06:51:03 +0100 in /lustre/scratch/uccabz1/launch_tmp/launcher_2020-09-12-03-35-18-924289
REM CASTEP 20.1 from code version af48c487+ pr-geom-scf-spinfix Tue Jun 2 15:39:59 2020 +0100
REM Functional Perdew Burke Ernzerhof Relativity Koelling-Harmon Dispersion off
REM Cut-off 340.0000 eV Grid scale 1.7500 Gmax 16.5316 1/A FBSC none
REM MP grid 6 3 2 Offset 0.000 0.000 0.000 No. kpts 9 Spacing 0.07
REM Total runtime: 8877.66 s
REM Overall efficiency: 91.625 %
REM
REM
REM
REM compiler GCC version 4.9.2
REM options -cpp -iprefix /lustre/shared/ucl/apps/gcc/4.9.2/bin/../lib/gcc/x86_64-unknown-linux-gnu/4.9.2/ -mtune=corei7 -march=x86-64 -g -Og
REM COMMAND_LINE
REM seed 220530779 1335956971 -2097732721 -297266555 283626938 -319140200 1616591920 826098118 -506517491 752731363 -1934292682 -1556119465
REM
REM S 3|1.8|5|6|7|30:31:32(qc=5)
REM O 2|1.5|12|13|15|20:21(qc=5)
REM Li 1|1.3|8|9|10|10U:20(qc=5)
REM Fe 3|2.2|2.0|1.0|8|9|10|40:41:32(qc=5)
REM 
CELL 1.54180    2.86884    5.95850   10.73945   90.00000   90.00000  119.66459
LATT -1
SFAC Li O  S  Fe 
Li     1 -0.0854940000000  0.5279610000000 -0.3242700000000 1.0  -0.00
Li     1 -0.0854940000000  0.5279610000000  0.3242700000000 1.0  -0.00
O      2 -0.2755050000000 -0.4698460000000 -0.1422900000000 1.0   0.12
O      2 -0.2755050000000 -0.4698460000000  0.1422900000000 1.0   0.12
S      3 -0.3005020000000  0.0115610000000 -0.2578740000000 1.0   0.01
S      3 -0.3005020000000  0.0115610000000  0.2578740000000 1.0   0.01
S      3 -0.5801200000000  0.5326810000000 -0.5000000000000 1.0  -0.06
Fe     4 -0.0107780000000  0.2997070000000  0.1038460000000 1.0   2.09
Fe     4 -0.0107780000000  0.2997070000000 -0.1038460000000 1.0   2.09
Fe     4  0.0800790000000 -0.1055680000000  0.1144370000000 1.0   1.49
Fe     4  0.0800790000000 -0.1055680000000 -0.1144370000000 1.0   1.49
END
