TITL LFSO-LiFe3S2O3-200909-164152-7a488c 0.0703 141.237047 -4.70918557E+003 -5.29670 5.56293 9 (C2/m) n - 1
REM
REM Run started: Wed, 09 Sep 2020 18:31:11 +0100 in /lustre/scratch/uccabz1/launch_tmp/launcher_2020-09-09-15-41-50-771147
REM CASTEP 20.1 from code version af48c487+ pr-geom-scf-spinfix Tue Jun 2 15:39:59 2020 +0100
REM Functional Perdew Burke Ernzerhof Relativity Koelling-Harmon Dispersion off
REM Cut-off 340.0000 eV Grid scale 1.7500 Gmax 16.5316 1/A FBSC none
REM MP grid 4 4 3 Offset 0.000 0.000 0.000 No. kpts 16 Spacing 0.07
REM Total runtime: 6610.22 s
REM Overall efficiency: 94 %
REM
REM
REM
REM compiler GCC version 4.9.2
REM options -cpp -iprefix /lustre/shared/ucl/apps/gcc/4.9.2/bin/../lib/gcc/x86_64-unknown-linux-gnu/4.9.2/ -mtune=corei7 -march=x86-64 -g -Og
REM COMMAND_LINE
REM seed -1771552694 633671750 -1886739363 1930214240 -1280059168 881367479 -1202535618 220484452 202340150 -535081784 -647761158 -924718593
REM
REM S 3|1.8|5|6|7|30:31:32(qc=5)
REM O 2|1.5|12|13|15|20:21(qc=5)
REM Li 1|1.3|8|9|10|10U:20(qc=5)
REM Fe 3|2.2|2.0|1.0|8|9|10|40:41:32(qc=5)
REM 
CELL 1.54180    4.68019    4.68019    8.51149  119.06597  119.06597   82.11741
LATT -1
SFAC Li O  S  Fe 
Li     1 -0.5000000000000 -0.5000000000000 -0.0000000000000 1.0  -0.01
O      2  0.5902700000000  0.5902700000000  0.3280580000000 1.0  -0.03
O      2 -0.5902700000000 -0.5902700000000 -0.3280580000000 1.0  -0.03
O      2  0.0000000000000 -0.0000000000000 -0.0000000000000 1.0   0.02
S      3 -0.0815310000000 -0.0815310000000 -0.2546940000000 1.0  -0.03
S      3  0.0815310000000  0.0815310000000  0.2546940000000 1.0  -0.03
Fe     4 -1.0000000000000 -0.5000000000000 -0.5000000000000 1.0  -2.01
Fe     4 -0.5000000000000 -1.0000000000000 -0.5000000000000 1.0  -2.01
Fe     4 -0.5000000000000 -0.5000000000000 -0.5000000000000 1.0  -1.15
END
