TITL LFSO-Li6FeS3O-200910-022105-ed4473 -0.1613 881.550216 -6822.246248006 8.00035 8.36253 22 (Cm) n - 1
REM
REM Run started: Sat, 12 Sep 2020 12:07:18 +0100 in /lustre/scratch/uccabz1/launch_tmp/launcher_2020-09-12-05-25-33-934273
REM CASTEP 20.1 from code version af48c487+ pr-geom-scf-spinfix Tue Jun 2 15:39:59 2020 +0100
REM Functional Perdew Burke Ernzerhof Relativity Koelling-Harmon Dispersion off
REM Cut-off 340.0000 eV Grid scale 1.7500 Gmax 16.5316 1/A FBSC none
REM MP grid 3 3 3 Offset 0.000 0.000 0.000 No. kpts 10 Spacing 0.07
REM Total runtime: 139466 s
REM Overall efficiency: 66 %
REM
REM
REM
REM compiler GCC version 4.9.2
REM options -cpp -iprefix /lustre/shared/ucl/apps/gcc/4.9.2/bin/../lib/gcc/x86_64-unknown-linux-gnu/4.9.2/ -mtune=corei7 -march=x86-64 -g -Og
REM COMMAND_LINE
REM seed -740132522 -1185233260 -2142927960 2142914551 379029413 -1990011094 -840044002 1861804598 -475779866 720713699 677232827 88061132
REM
REM S 3|1.8|5|6|7|30:31:32(qc=5)
REM O 2|1.5|12|13|15|20:21(qc=5)
REM Li 1|1.3|8|9|10|10U:20(qc=5)
REM Fe 3|2.2|2.0|1.0|8|9|10|40:41:32(qc=5)
REM 
CELL 1.54180    6.58890   24.64512   24.64512  166.40809   92.36301   92.36301
LATT -1
SFAC Li O  S  Fe 
Li     1  0.2862980000000  0.1929570000000 -0.1460370000000 1.0  -0.03
Li     1  0.2862980000000 -0.1460370000000  0.1929570000000 1.0  -0.03
Li     1 -0.4968440000000 -0.5438300000000 -0.2104040000000 1.0   0.01
Li     1 -0.4968440000000 -0.2104040000000 -0.5438300000000 1.0   0.01
Li     1 -0.2391360000000 -0.4438870000000  0.2839190000000 1.0  -0.01
Li     1 -0.2391360000000  0.2839190000000 -0.4438870000000 1.0  -0.01
Li     1  0.0874010000000 -0.0949200000000  0.1501340000000 1.0   0.04
Li     1  0.0874010000000  0.1501340000000 -0.0949200000000 1.0   0.04
Li     1 -0.1961440000000  0.5671830000000  0.0719430000000 1.0  -0.07
Li     1 -0.1961440000000  0.0719430000000  0.5671830000000 1.0  -0.07
Li     1  0.4418180000000 -0.2962330000000  0.2405100000000 1.0   0.03
Li     1  0.4418180000000  0.2405100000000 -0.2962330000000 1.0   0.03
O      2 -0.2546920000000 -0.2147600000000  0.3276900000000 1.0   0.21
O      2 -0.2546920000000  0.3276900000000 -0.2147600000000 1.0   0.21
S      3  0.4021640000000  0.4328250000000  0.1656580000000 1.0   0.01
S      3  0.4021640000000  0.1656580000000  0.4328250000000 1.0   0.01
S      3 -0.1098750000000 -0.3690850000000 -0.0496030000000 1.0   0.13
S      3 -0.1098750000000 -0.0496030000000 -0.3690850000000 1.0   0.13
S      3  0.3187100000000  0.5666040000000 -0.0102860000000 1.0   0.17
S      3  0.3187100000000 -0.0102860000000  0.5666040000000 1.0   0.17
Fe     4 -0.0412010000000 -0.1228950000000  0.4708500000000 1.0   3.50
Fe     4 -0.0412010000000  0.4708500000000 -0.1228950000000 1.0   3.50
END
