TITL LFSO-Li4Fe2SO3-200910-193355-4e8a05 0.0772 279.091875 -8.28773435E+003 12.9081 13.1861 20 (Cc) n - 1
REM
REM Run started: Fri, 11 Sep 2020 08:58:17 +0100 in /lustre/scratch/uccabz1/launch_tmp/launcher_2020-09-10-18-33-54-162084
REM CASTEP 20.1 from code version af48c487+ pr-geom-scf-spinfix Tue Jun 2 15:39:59 2020 +0100
REM Functional Perdew Burke Ernzerhof Relativity Koelling-Harmon Dispersion off
REM Cut-off 340.0000 eV Grid scale 1.7500 Gmax 16.5316 1/A FBSC none
REM MP grid 3 3 3 Offset 0.000 0.000 0.000 No. kpts 10 Spacing 0.07
REM Total runtime: 52569.2 s
REM Overall efficiency: 68.3333 %
REM
REM
REM
REM compiler GCC version 4.9.2
REM options -cpp -iprefix /lustre/shared/ucl/apps/gcc/4.9.2/bin/../lib/gcc/x86_64-unknown-linux-gnu/4.9.2/ -mtune=corei7 -march=x86-64 -g -Og
REM COMMAND_LINE
REM seed 1964047990 1014620003 -1955225174 -148590233 1101548080 -373311655 1795815029 201498105 -16884089 1169084525 -2045137377 232577740
REM
REM S 3|1.8|5|6|7|30:31:32(qc=5)
REM O 2|1.5|12|13|15|20:21(qc=5)
REM Li 1|1.3|8|9|10|10U:20(qc=5)
REM Fe 3|2.2|2.0|1.0|8|9|10|40:41:32(qc=5)
REM 
CELL 1.54180    7.67545    6.34990    7.55244  114.85907  119.89353   90.00000
LATT -1
SFAC Li O  S  Fe 
Li     1  0.2195880000000  0.5052680000000 -0.6032190000000 1.0  -0.02
Li     1 -0.2804120000000 -0.1084870000000 -0.6032190000000 1.0  -0.02
Li     1  0.4320460000000  0.3664600000000  0.1923070000000 1.0   0.01
Li     1 -0.0679540000000 -0.1741530000000  0.1923070000000 1.0   0.01
Li     1  0.3401070000000  0.0836740000000  0.3460250000000 1.0  -0.02
Li     1 -0.1598930000000  0.2623510000000  0.3460250000000 1.0  -0.02
Li     1  0.1567770000000  0.2879050000000 -0.3068760000000 1.0  -0.05
Li     1 -0.3432230000000  0.4052190000000 -0.3068760000000 1.0  -0.05
O      2  0.5448150000000  0.0976460000000  0.0701310000000 1.0   0.19
O      2  0.0448150000000 -0.0275150000000  0.0701310000000 1.0   0.19
O      2 -0.3834720000000  0.0488840000000 -0.3816160000000 1.0   0.25
O      2  0.1165280000000 -0.4305000000000 -0.3816160000000 1.0   0.25
O      2  0.4402960000000  0.3948390000000  0.4449650000000 1.0   0.08
O      2 -0.0597040000000  0.0501260000000  0.4449650000000 1.0   0.08
S      3 -0.4428480000000 -0.4692620000000  0.0014720000000 1.0   0.13
S      3  0.0571520000000 -0.5292660000000  0.0014720000000 1.0   0.13
Fe     4 -0.4420900000000  0.1249410000000 -0.1529850000000 1.0   2.84
Fe     4  0.0579100000000 -0.2779260000000 -0.1529850000000 1.0   2.84
Fe     4  0.3785950000000 -0.2134620000000 -0.1373930000000 1.0   3.05
Fe     4 -0.1214050000000  0.0760690000000 -0.1373930000000 1.0   3.05
END
