TITL LFSO-LiFe3SO4-200909-023421-bb1844 -0.0142 208.778422 -9.68844940E+003 14.3993 15.1233 18 (Amm2) n - 1
REM
REM Run started: Wed, 09 Sep 2020 07:53:50 +0100 in /lustre/scratch/uccabz1/launch_tmp/launcher_2020-09-09-01-34-19-256258
REM CASTEP 20.1 from code version af48c487+ pr-geom-scf-spinfix Tue Jun 2 15:39:59 2020 +0100
REM Functional Perdew Burke Ernzerhof Relativity Koelling-Harmon Dispersion off
REM Cut-off 340.0000 eV Grid scale 1.7500 Gmax 16.5316 1/A FBSC none
REM MP grid 5 5 2 Offset 0.000 0.000 0.000 No. kpts 9 Spacing 0.07
REM Total runtime: 22038.3 s
REM Overall efficiency: 97.8571 %
REM
REM
REM
REM compiler GCC version 4.9.2
REM options -cpp -iprefix /lustre/shared/ucl/apps/gcc/4.9.2/bin/../lib/gcc/x86_64-unknown-linux-gnu/4.9.2/ -mtune=corei7 -march=x86-64 -g -Og
REM COMMAND_LINE
REM seed -331535142 1818287932 -1223927545 255405602 186823930 100869656 -92361365 -2098769785 1696987481 -1517511205 -549046301 347320260
REM
REM S 3|1.8|5|6|7|30:31:32(qc=5)
REM O 2|1.5|12|13|15|20:21(qc=5)
REM Li 1|1.3|8|9|10|10U:20(qc=5)
REM Fe 3|2.2|2.0|1.0|8|9|10|40:41:32(qc=5)
REM 
CELL 1.54180    5.16126    5.16126   11.62590   90.00000   90.00000  137.61296
LATT -1
SFAC Li O  S  Fe 
Li     1  0.0546200000000 -0.2726730000000  0.5000000000000 1.0  -0.00
Li     1 -0.2726730000000  0.0546200000000  0.5000000000000 1.0  -0.00
O      2 -0.6210570000000 -0.3542670000000  0.3871420000000 1.0   0.01
O      2 -0.3542670000000 -0.6210570000000 -0.3871420000000 1.0   0.01
O      2 -0.3542670000000 -0.6210570000000  0.3871420000000 1.0   0.01
O      2 -0.6210570000000 -0.3542670000000 -0.3871420000000 1.0   0.01
O      2  0.0748750000000 -0.2293910000000 -0.1588610000000 1.0   0.11
O      2 -0.2293910000000  0.0748750000000  0.1588610000000 1.0   0.11
O      2 -0.2293910000000  0.0748750000000 -0.1588610000000 1.0   0.11
O      2  0.0748750000000 -0.2293910000000  0.1588610000000 1.0   0.11
S      3  0.3170600000000  0.3170600000000  0.3429030000000 1.0  -0.04
S      3  0.3170600000000  0.3170600000000 -0.3429030000000 1.0  -0.04
Fe     4  0.3039460000000  0.5438120000000  0.1604120000000 1.0   2.37
Fe     4  0.5438120000000  0.3039460000000 -0.1604120000000 1.0   2.37
Fe     4  0.5438120000000  0.3039460000000  0.1604120000000 1.0   2.37
Fe     4  0.3039460000000  0.5438120000000 -0.1604120000000 1.0   2.37
Fe     4  0.0805050000000 -0.2476130000000  0.0000000000000 1.0   2.27
Fe     4 -0.2476130000000  0.0805050000000 -0.0000000000000 1.0   2.27
END
