TITL LFSO-Li2Fe2SO2-200913-004348-173855 0.0642 85.139999 -3.30544103E+003 7.85510 7.89398 7 (R3m) n - 1
REM
REM Run started: Sun, 13 Sep 2020 01:47:54 +0100 in /lustre/scratch/uccabz1/launch_tmp/launcher_2020-09-12-23-43-46-353810
REM CASTEP 20.1 from code version af48c487+ pr-geom-scf-spinfix Tue Jun 2 15:39:59 2020 +0100
REM Functional Perdew Burke Ernzerhof Relativity Koelling-Harmon Dispersion off
REM Cut-off 340.0000 eV Grid scale 1.7500 Gmax 16.5316 1/A FBSC none
REM MP grid 5 5 2 Offset 0.000 0.000 0.000 No. kpts 15 Spacing 0.07
REM Total runtime: 4329.55 s
REM Overall efficiency: 93.5 %
REM
REM
REM
REM compiler GCC version 4.9.2
REM options -cpp -iprefix /lustre/shared/ucl/apps/gcc/4.9.2/bin/../lib/gcc/x86_64-unknown-linux-gnu/4.9.2/ -mtune=corei7 -march=x86-64 -g -Og
REM COMMAND_LINE
REM seed 850206215 566755722 1263281200 -84758227 -1729401638 -1450934802 -111909090 404482225 -1256007810 787727962 -978630107 -1921708544
REM
REM S 3|1.8|5|6|7|30:31:32(qc=5)
REM O 2|1.5|12|13|15|20:21(qc=5)
REM Li 1|1.3|8|9|10|10U:20(qc=5)
REM Fe 3|2.2|2.0|1.0|8|9|10|40:41:32(qc=5)
REM 
CELL 1.54180    3.37203    3.37203    8.86257   79.03319   79.03319   60.00000
LATT -1
SFAC Li O  S  Fe 
Li     1  0.0031890000000  0.0031890000000 -0.0095670000000 1.0   0.09
Li     1  0.2469470000000  0.2469470000000  0.2591600000000 1.0  -0.04
O      2 -0.4311560000000 -0.4311560000000  0.2934680000000 1.0   0.19
O      2  0.1510780000000  0.1510780000000 -0.4532330000000 1.0   0.38
S      3 -0.2826960000000 -0.2826960000000 -0.1519120000000 1.0   0.23
Fe     4 -0.1515210000000 -0.1515210000000  0.4545640000000 1.0   3.57
Fe     4  0.4401950000000  0.4401950000000 -0.3205850000000 1.0   3.44
END
