TITL LFSO-Li2Fe4S3O2-200912-051005-46dc19 -3.8370 326.311017 -11279.48586869 0.199286 3.84060 22 (P2) n - 1
REM
REM Run started: Mon, 14 Sep 2020 02:42:59 +0100 in /lustre/scratch/uccabz1/launch_tmp/launcher_2020-09-12-05-58-34-458950
REM CASTEP 20.1 from code version af48c487+ pr-geom-scf-spinfix Tue Jun 2 15:39:59 2020 +0100
REM Functional Perdew Burke Ernzerhof Relativity Koelling-Harmon Dispersion off
REM Cut-off 340.0000 eV Grid scale 1.7500 Gmax 16.5316 1/A FBSC none
REM MP grid 3 3 2 Offset 0.000 0.000 0.000 No. kpts 6 Spacing 0.07
REM Total runtime: 160583 s
REM Overall efficiency: 98.6667 %
REM
REM
REM
REM compiler GCC version 4.9.2
REM options -cpp -iprefix /lustre/shared/ucl/apps/gcc/4.9.2/bin/../lib/gcc/x86_64-unknown-linux-gnu/4.9.2/ -mtune=corei7 -march=x86-64 -g -Og
REM COMMAND_LINE
REM seed 1815467549 156445723 627847920 -1194749490 -1209605339 -1333368884 -177078206 -724414879 -978395809 720309108 792794870 2039197059
REM
REM S 3|1.8|5|6|7|30:31:32(qc=5)
REM O 2|1.5|12|13|15|20:21(qc=5)
REM Li 1|1.3|8|9|10|10U:20(qc=5)
REM Fe 3|2.2|2.0|1.0|8|9|10|40:41:32(qc=5)
REM 
CELL 1.54180    5.39634    6.08063    9.94658   90.00000   91.16489   90.00000
LATT -1
SFAC Li O  S  Fe 
Li     1  0.4432280000000 -0.1719040000000 -0.1194790000000 1.0   0.00
Li     1 -0.4432280000000 -0.1719040000000  0.1194790000000 1.0   0.00
Li     1  0.0502580000000 -0.3040450000000  0.1390580000000 1.0  -0.01
Li     1 -0.0502580000000 -0.3040450000000 -0.1390580000000 1.0  -0.01
O      2 -0.2471740000000 -0.1083810000000 -0.0319810000000 1.0   0.04
O      2  0.2471740000000 -0.1083810000000  0.0319810000000 1.0   0.04
O      2  0.1410230000000 -0.1116510000000  0.2851380000000 1.0  -0.03
O      2 -0.1410230000000 -0.1116510000000 -0.2851380000000 1.0  -0.03
S      3 -0.3462710000000 -0.2755330000000  0.3590850000000 1.0   0.01
S      3  0.3462710000000 -0.2755330000000 -0.3590850000000 1.0   0.01
S      3  0.0846650000000  0.3449480000000  0.3367060000000 1.0  -0.01
S      3 -0.0846650000000  0.3449480000000 -0.3367060000000 1.0  -0.01
S      3 -0.2986150000000 -0.6192400000000 -0.0120000000000 1.0  -0.04
S      3  0.2986150000000 -0.6192400000000  0.0120000000000 1.0  -0.04
Fe     4 -0.4006520000000  0.0267820000000 -0.3901300000000 1.0   0.02
Fe     4  0.4006520000000  0.0267820000000  0.3901300000000 1.0   0.02
Fe     4 -0.1807210000000  0.1141330000000 -0.1480620000000 1.0   0.04
Fe     4  0.1807210000000  0.1141330000000  0.1480620000000 1.0   0.04
Fe     4  0.1096360000000  0.0206810000000 -0.3858970000000 1.0  -0.12
Fe     4 -0.1096360000000  0.0206810000000  0.3858970000000 1.0  -0.12
Fe     4 -0.2983140000000  0.3830320000000  0.4593620000000 1.0   0.14
Fe     4  0.2983140000000  0.3830320000000 -0.4593620000000 1.0   0.14
END
