TITL LFSO-Li4FeS2O-200910-120226-9edd1a -0.1382 512.452300 -8.12639616E+003 -5.99491 10.0592 24 (Pm) n - 1
REM
REM Run started: Fri, 11 Sep 2020 07:14:05 +0100 in /lustre/scratch/uccabz1/launch_tmp/launcher_2020-09-10-11-02-24-940194
REM CASTEP 20.1 from code version af48c487+ pr-geom-scf-spinfix Tue Jun 2 15:39:59 2020 +0100
REM Functional Perdew Burke Ernzerhof Relativity Koelling-Harmon Dispersion off
REM Cut-off 340.0000 eV Grid scale 1.7500 Gmax 16.5316 1/A FBSC none
REM MP grid 2 3 3 Offset 0.000 0.000 0.000 No. kpts 5 Spacing 0.07
REM Total runtime: 87918.7 s
REM Overall efficiency: 84.25 %
REM
REM
REM
REM compiler GCC version 4.9.2
REM options -cpp -iprefix /lustre/shared/ucl/apps/gcc/4.9.2/bin/../lib/gcc/x86_64-unknown-linux-gnu/4.9.2/ -mtune=corei7 -march=x86-64 -g -Og
REM COMMAND_LINE
REM seed -1109108020 -463131969 48727439 -1327464211 1718438176 784241161 1822150955 372694127 967371499 -868504576 995953718 887290180
REM
REM S 3|1.8|5|6|7|30:31:32(qc=5)
REM O 2|1.5|12|13|15|20:21(qc=5)
REM Li 1|1.3|8|9|10|10U:20(qc=5)
REM Fe 3|2.2|2.0|1.0|8|9|10|40:41:32(qc=5)
REM 
CELL 1.54180   12.41345    6.24075    8.88358  131.87326   90.00000   90.00000
LATT -1
SFAC Li O  S  Fe 
Li     1 -0.2411400000000 -0.1135520000000 -0.1337290000000 1.0  -0.01
Li     1  0.2411400000000 -0.1135520000000 -0.1337290000000 1.0  -0.01
Li     1 -0.1288100000000 -0.2297030000000  0.4667620000000 1.0   0.05
Li     1  0.1288100000000 -0.2297030000000  0.4667620000000 1.0   0.05
Li     1  0.3149890000000 -0.4242910000000 -0.0009470000000 1.0  -0.01
Li     1 -0.3149890000000 -0.4242910000000 -0.0009470000000 1.0  -0.01
Li     1 -0.1286800000000  0.2568530000000 -0.4039400000000 1.0   0.02
Li     1  0.1286800000000  0.2568530000000 -0.4039400000000 1.0   0.02
Li     1 -0.1288090000000 -0.1890670000000  0.1854810000000 1.0   0.00
Li     1  0.1288090000000 -0.1890670000000  0.1854810000000 1.0   0.00
Li     1  0.3514640000000  0.0370070000000 -0.4335390000000 1.0  -0.04
Li     1 -0.3514640000000  0.0370070000000 -0.4335390000000 1.0  -0.04
O      2  0.2277740000000 -0.1053490000000  0.0802310000000 1.0  -0.23
O      2 -0.2277740000000 -0.1053490000000  0.0802310000000 1.0  -0.23
O      2  0.0000000000000 -0.0657360000000  0.3927380000000 1.0  -0.00
S      3 -0.3652130000000  0.4289280000000 -0.4287880000000 1.0  -0.18
S      3  0.3652130000000  0.4289280000000 -0.4287880000000 1.0  -0.18
S      3  0.2010750000000  0.1568800000000 -0.2227750000000 1.0  -0.01
S      3 -0.2010750000000  0.1568800000000 -0.2227750000000 1.0  -0.01
S      3 -0.3630960000000 -0.4494340000000  0.2575900000000 1.0  -0.17
S      3  0.3630960000000 -0.4494340000000  0.2575900000000 1.0  -0.17
Fe     4 -0.2894560000000  0.2404010000000  0.2774020000000 1.0  -3.39
Fe     4  0.2894560000000  0.2404010000000  0.2774020000000 1.0  -3.39
Fe     4  0.5000000000000  0.4887000000000  0.4121880000000 1.0   1.95
END
