TITL LFSO-Li2Fe4S2O3-200912-142721-64d5a6 0.0187 157.768141 -5.77623473E+003 14.2075 14.3857 11 (P2) n - 1
REM
REM Run started: Sat, 12 Sep 2020 17:03:20 +0100 in /lustre/scratch/uccabz1/launch_tmp/launcher_2020-09-12-13-27-19-435690
REM CASTEP 20.1 from code version af48c487+ pr-geom-scf-spinfix Tue Jun 2 15:39:59 2020 +0100
REM Functional Perdew Burke Ernzerhof Relativity Koelling-Harmon Dispersion off
REM Cut-off 340.0000 eV Grid scale 1.7500 Gmax 16.5316 1/A FBSC none
REM MP grid 5 2 3 Offset 0.000 0.000 0.000 No. kpts 9 Spacing 0.07
REM Total runtime: 9462.32 s
REM Overall efficiency: 89 %
REM
REM
REM
REM compiler GCC version 4.9.2
REM options -cpp -iprefix /lustre/shared/ucl/apps/gcc/4.9.2/bin/../lib/gcc/x86_64-unknown-linux-gnu/4.9.2/ -mtune=corei7 -march=x86-64 -g -Og
REM COMMAND_LINE
REM seed -1819903135 -914005170 -508358677 650946881 1605833765 768173942 -1039579820 -423945001 -1132603591 -64392495 -1848511480 -1666727006
REM
REM S 3|1.8|5|6|7|30:31:32(qc=5)
REM O 2|1.5|12|13|15|20:21(qc=5)
REM Li 1|1.3|8|9|10|10U:20(qc=5)
REM Fe 3|2.2|2.0|1.0|8|9|10|40:41:32(qc=5)
REM 
CELL 1.54180    3.33686    8.62399    6.40167  121.08444   90.00000   90.00000
LATT -1
SFAC Li O  S  Fe 
Li     1 -0.1366210000000 -0.1253890000000  0.0847780000000 1.0   0.00
Li     1 -0.1366210000000  0.1253890000000 -0.0847780000000 1.0   0.00
O      2 -0.1045980000000 -0.3293730000000 -0.2500320000000 1.0   0.35
O      2 -0.1045980000000  0.3293730000000  0.2500320000000 1.0   0.35
O      2  0.4090690000000  0.0000000000000  0.0000000000000 1.0   0.26
S      3  0.3868200000000  0.2505360000000 -0.3146890000000 1.0   0.14
S      3  0.3868200000000 -0.2505360000000  0.3146890000000 1.0   0.14
Fe     4 -0.1170190000000 -0.4163980000000  0.3528460000000 1.0   3.14
Fe     4 -0.1170190000000  0.4163980000000 -0.3528460000000 1.0   3.14
Fe     4  0.3938780000000 -0.2307790000000 -0.3123240000000 1.0   3.34
Fe     4  0.3938780000000  0.2307790000000  0.3123240000000 1.0   3.34
END
