TITL LFSO-Li5FeS3O-200910-095653-245f6d 0.1376 354.308756 -6.42602655E+003 5.20001 5.68340 20 (P21) n - 1
REM
REM Run started: Thu, 10 Sep 2020 16:22:48 +0100 in /lustre/scratch/uccabz1/launch_tmp/launcher_2020-09-10-14-59-54-562694
REM CASTEP 20.1 from code version af48c487+ pr-geom-scf-spinfix Tue Jun 2 15:39:59 2020 +0100
REM Functional Perdew Burke Ernzerhof Relativity Koelling-Harmon Dispersion off
REM Cut-off 340.0000 eV Grid scale 1.7500 Gmax 16.5316 1/A FBSC none
REM MP grid 5 2 2 Offset 0.000 0.000 0.000 No. kpts 5 Spacing 0.07
REM Total runtime: 21001.4 s
REM Overall efficiency: 82.3636 %
REM
REM
REM
REM compiler GCC version 4.9.2
REM options -cpp -iprefix /lustre/shared/ucl/apps/gcc/4.9.2/bin/../lib/gcc/x86_64-unknown-linux-gnu/4.9.2/ -mtune=corei7 -march=x86-64 -g -Og
REM COMMAND_LINE
REM seed -2043021090 382009803 1945406114 1091546822 -1481660788 -37264231 -660467321 -330507792 -1440778856 1533024105 -1034028944 -2124881602
REM
REM S 3|1.8|5|6|7|30:31:32(qc=5)
REM O 2|1.5|12|13|15|20:21(qc=5)
REM Li 1|1.3|8|9|10|10U:20(qc=5)
REM Fe 3|2.2|2.0|1.0|8|9|10|40:41:32(qc=5)
REM 
CELL 1.54180    3.19069    9.04434   13.73863   90.00000   63.33800   90.00000
LATT -1
SFAC Li O  S  Fe 
Li     1  0.6076580000000 -0.5471360000000  0.2236630000000 1.0   0.00
Li     1 -0.6076580000000 -0.0471360000000 -0.2236630000000 1.0   0.00
Li     1 -0.6091980000000 -0.3254720000000  0.3436220000000 1.0   0.01
Li     1  0.6091980000000  0.1745280000000 -0.3436220000000 1.0   0.01
Li     1  0.1690380000000 -0.0728470000000 -0.3994840000000 1.0   0.00
Li     1 -0.1690380000000  0.4271530000000  0.3994840000000 1.0   0.00
Li     1 -0.2232260000000  0.1754410000000 -0.1620170000000 1.0  -0.04
Li     1  0.2232260000000 -0.3245590000000  0.1620170000000 1.0  -0.04
Li     1  0.0932480000000  0.5140930000000 -0.3817530000000 1.0   0.00
Li     1 -0.0932480000000  0.0140930000000  0.3817530000000 1.0   0.00
O      2 -0.0007820000000 -0.4498770000000  0.2817500000000 1.0   0.00
O      2  0.0007820000000  0.0501230000000 -0.2817500000000 1.0   0.00
S      3  0.5814790000000 -0.0944450000000  0.2198330000000 1.0   0.03
S      3 -0.5814790000000  0.4055550000000 -0.2198330000000 1.0   0.03
S      3  0.2166530000000  0.2314980000000  0.4637790000000 1.0   0.00
S      3 -0.2166530000000 -0.2685020000000 -0.4637790000000 1.0   0.00
S      3  0.0413410000000  0.0164230000000 -0.0265750000000 1.0   0.06
S      3 -0.0413410000000  0.5164230000000  0.0265750000000 1.0   0.06
Fe     4  0.3136010000000 -0.0346630000000  0.0948600000000 1.0   2.52
Fe     4 -0.3136010000000 -0.5346630000000 -0.0948600000000 1.0   2.52
END
