TITL LFSO-Li4Fe3SO4-200930-111335-382663 0.0039 283.039587 -1.08922218E+004 17.9995 18.6800 24 (R3) n - 1
REM
REM Run started: Wed, 30 Sep 2020 15:36:50 +0100 in /lustre/scratch/uccabz1/launch_tmp/launcher_2020-09-30-10-13-33-232362
REM CASTEP 20.1 from code version af48c487+ pr-geom-scf-spinfix Tue Jun 2 15:39:59 2020 +0100
REM Functional Perdew Burke Ernzerhof Relativity Koelling-Harmon Dispersion off
REM Cut-off 340.0000 eV Grid scale 1.7500 Gmax 16.5316 1/A FBSC none
REM MP grid 3 3 3 Offset 0.000 0.000 0.000 No. kpts 6 Spacing 0.07
REM Total runtime: 15878.3 s
REM Overall efficiency: 95.8889 %
REM
REM
REM
REM compiler GCC version 4.9.2
REM options -cpp -iprefix /lustre/shared/ucl/apps/gcc/4.9.2/bin/../lib/gcc/x86_64-unknown-linux-gnu/4.9.2/ -mtune=corei7 -march=x86-64 -g -Og
REM COMMAND_LINE
REM seed 595950502 -1502859168 410528476 661680244 -2016470584 -1208764564 1523120581 -144957145 -2143339085 1494742502 579058234 2109807097
REM
REM S 3|1.8|5|6|7|30:31:32(qc=5)
REM O 2|1.5|12|13|15|20:21(qc=5)
REM Li 1|1.3|8|9|10|10U:20(qc=5)
REM Fe 3|2.2|2.0|1.0|8|9|10|40:41:32(qc=5)
REM 
CELL 1.54180    7.15851    7.15851    7.15851   64.14482   64.14482   64.14482
LATT -1
SFAC Li O  S  Fe 
Li     1  0.4001690000000 -0.2515170000000 -0.2237860000000 1.0  -0.01
Li     1 -0.2237860000000  0.4001690000000 -0.2515170000000 1.0  -0.01
Li     1 -0.2515170000000 -0.2237860000000  0.4001690000000 1.0  -0.01
Li     1 -0.4099810000000  0.1997560000000  0.1949430000000 1.0  -0.00
Li     1  0.1949430000000 -0.4099810000000  0.1997560000000 1.0  -0.00
Li     1  0.1997560000000  0.1949430000000 -0.4099810000000 1.0  -0.00
Li     1  0.0546280000000  0.0546280000000  0.0546280000000 1.0   0.03
Li     1 -0.0948640000000 -0.0948640000000 -0.0948640000000 1.0  -0.02
O      2  0.0151630000000 -0.1767540000000  0.3115210000000 1.0   0.22
O      2  0.3115210000000  0.0151630000000 -0.1767540000000 1.0   0.22
O      2 -0.1767540000000  0.3115210000000  0.0151630000000 1.0   0.22
O      2 -0.0840730000000  0.1520950000000 -0.3600640000000 1.0   0.15
O      2 -0.3600640000000 -0.0840730000000  0.1520950000000 1.0   0.15
O      2  0.1520950000000 -0.3600640000000 -0.0840730000000 1.0   0.15
O      2 -0.4270240000000 -0.4270240000000 -0.4270240000000 1.0   0.31
O      2  0.4082700000000  0.4082700000000  0.4082700000000 1.0   0.19
S      3  0.1953840000000  0.1953840000000  0.1953840000000 1.0  -0.10
S      3 -0.2326020000000 -0.2326020000000 -0.2326020000000 1.0  -0.05
Fe     4 -0.0261650000000  0.4713130000000 -0.0118890000000 1.0   2.21
Fe     4 -0.0118890000000 -0.0261650000000  0.4713130000000 1.0   2.21
Fe     4  0.4713130000000 -0.0118890000000 -0.0261650000000 1.0   2.21
Fe     4  0.2611610000000 -0.4331010000000 -0.3611260000000 1.0   3.32
Fe     4 -0.3611260000000  0.2611610000000 -0.4331010000000 1.0   3.32
Fe     4 -0.4331010000000 -0.3611260000000  0.2611610000000 1.0   3.32
END
