TITL LFSO-Li2Fe2S3O-200913-070008-d93c46 0.0701 303.788838 -6.95225920E+003 -6.48811 13.0575 16 (R3) n - 1
REM
REM Run started: Sun, 13 Sep 2020 12:10:56 +0100 in /lustre/scratch/uccabz1/launch_tmp/launcher_2020-09-13-06-00-06-804372
REM CASTEP 20.1 from code version af48c487+ pr-geom-scf-spinfix Tue Jun 2 15:39:59 2020 +0100
REM Functional Perdew Burke Ernzerhof Relativity Koelling-Harmon Dispersion off
REM Cut-off 340.0000 eV Grid scale 1.7500 Gmax 16.5316 1/A FBSC none
REM MP grid 3 3 3 Offset 0.000 0.000 0.000 No. kpts 6 Spacing 0.07
REM Total runtime: 21357.4 s
REM Overall efficiency: 98.4286 %
REM
REM
REM
REM compiler GCC version 4.9.2
REM options -cpp -iprefix /lustre/shared/ucl/apps/gcc/4.9.2/bin/../lib/gcc/x86_64-unknown-linux-gnu/4.9.2/ -mtune=corei7 -march=x86-64 -g -Og
REM COMMAND_LINE
REM seed -448297028 1406567651 725394954 -1114484780 -1211344997 -2100069461 1737960304 2113998309 559349788 26246804 -244500466 -366567232
REM
REM S 3|1.8|5|6|7|30:31:32(qc=5)
REM O 2|1.5|12|13|15|20:21(qc=5)
REM Li 1|1.3|8|9|10|10U:20(qc=5)
REM Fe 3|2.2|2.0|1.0|8|9|10|40:41:32(qc=5)
REM 
CELL 1.54180    6.73211    6.73211    6.73211   86.86804   86.86804   86.86804
LATT -1
SFAC Li O  S  Fe 
Li     1  0.4321060000000  0.0687920000000  0.2342390000000 1.0   0.00
Li     1  0.2342390000000  0.4321060000000  0.0687920000000 1.0   0.00
Li     1  0.0687920000000  0.2342390000000  0.4321060000000 1.0   0.00
Li     1  0.0685860000000  0.0685860000000  0.0685860000000 1.0  -0.03
O      2  0.2069630000000  0.2069630000000  0.2069630000000 1.0   0.00
O      2 -0.2905120000000 -0.2905120000000 -0.2905120000000 1.0   0.06
S      3  0.1525480000000 -0.0513440000000 -0.3084290000000 1.0   0.00
S      3 -0.3084290000000  0.1525480000000 -0.0513440000000 1.0   0.00
S      3 -0.0513440000000 -0.3084290000000  0.1525480000000 1.0   0.00
S      3 -0.3262620000000  0.0129230000000  0.4698160000000 1.0  -0.20
S      3  0.4698160000000 -0.3262620000000  0.0129230000000 1.0  -0.20
S      3  0.0129230000000  0.4698160000000 -0.3262620000000 1.0  -0.20
Fe     4 -0.0969890000000 -0.2493160000000 -0.5164160000000 1.0  -3.01
Fe     4 -0.5164160000000 -0.0969890000000 -0.2493160000000 1.0  -3.01
Fe     4 -0.2493160000000 -0.5164160000000 -0.0969890000000 1.0  -3.01
Fe     4 -0.1322740000000 -0.1322740000000 -0.1322740000000 1.0   3.09
END
