TITL LFSO-Li2Fe3SO3-200912-141707-f41eb5 0.0189 103.014107 -4.60791425E+003 3.99645 4.15618 9 (R3) n - 1
REM
REM Run started: Sat, 12 Sep 2020 15:45:42 +0100 in /lustre/scratch/uccabz1/launch_tmp/launcher_2020-09-12-13-17-05-538677
REM CASTEP 20.1 from code version af48c487+ pr-geom-scf-spinfix Tue Jun 2 15:39:59 2020 +0100
REM Functional Perdew Burke Ernzerhof Relativity Koelling-Harmon Dispersion off
REM Cut-off 340.0000 eV Grid scale 1.7500 Gmax 16.5316 1/A FBSC none
REM MP grid 4 4 4 Offset 0.000 0.000 0.000 No. kpts 12 Spacing 0.07
REM Total runtime: 6575.44 s
REM Overall efficiency: 95 %
REM
REM
REM
REM compiler GCC version 4.9.2
REM options -cpp -iprefix /lustre/shared/ucl/apps/gcc/4.9.2/bin/../lib/gcc/x86_64-unknown-linux-gnu/4.9.2/ -mtune=corei7 -march=x86-64 -g -Og
REM COMMAND_LINE
REM seed -2017876091 -2019972837 267452730 -1321909051 794399012 1086871389 991831719 -882736484 1891836125 -1279087347 -565439867 -1791600189
REM
REM S 3|1.8|5|6|7|30:31:32(qc=5)
REM O 2|1.5|12|13|15|20:21(qc=5)
REM Li 1|1.3|8|9|10|10U:20(qc=5)
REM Fe 3|2.2|2.0|1.0|8|9|10|40:41:32(qc=5)
REM 
CELL 1.54180    6.10860    6.10860    6.10860   44.81244   44.81244   44.81244
LATT -1
SFAC Li O  S  Fe 
Li     1 -0.0340310000000 -0.0340310000000 -0.0340310000000 1.0  -0.01
Li     1 -0.3691820000000 -0.3691820000000 -0.3691820000000 1.0  -0.01
O      2  0.2225490000000 -0.1192830000000 -0.4363420000000 1.0   0.05
O      2 -0.4363420000000  0.2225490000000 -0.1192830000000 1.0   0.05
O      2 -0.1192830000000 -0.4363420000000  0.2225490000000 1.0   0.05
S      3  0.3901640000000  0.3901640000000  0.3901640000000 1.0   0.07
Fe     4 -0.5170270000000 -0.1641650000000  0.1483680000000 1.0   1.26
Fe     4  0.1483680000000 -0.5170270000000 -0.1641650000000 1.0   1.26
Fe     4 -0.1641650000000  0.1483680000000 -0.5170270000000 1.0   1.26
END
