TITL LFSO-Li3Fe3SO5-200927-073325-c08a87 0.0472 290.170271 -1.13642656E+004 21.6838 22.0392 24 (C2/c) n - 1
REM
REM Run started: Mon, 28 Sep 2020 12:29:01 +0100 in /lustre/scratch/uccabz1/launch_tmp/launcher_2020-09-27-06-33-22-254859
REM CASTEP 20.1 from code version af48c487+ pr-geom-scf-spinfix Tue Jun 2 15:39:59 2020 +0100
REM Functional Perdew Burke Ernzerhof Relativity Koelling-Harmon Dispersion off
REM Cut-off 340.0000 eV Grid scale 1.7500 Gmax 16.5316 1/A FBSC none
REM MP grid 3 3 3 Offset 0.000 0.000 0.000 No. kpts 10 Spacing 0.07
REM Total runtime: 59158.5 s
REM Overall efficiency: 83.9 %
REM
REM
REM
REM compiler GCC version 4.9.2
REM options -cpp -iprefix /lustre/shared/ucl/apps/gcc/4.9.2/bin/../lib/gcc/x86_64-unknown-linux-gnu/4.9.2/ -mtune=corei7 -march=x86-64 -g -Og
REM COMMAND_LINE
REM seed 92444218 123015764 -1120279506 -1667124659 -1067302563 1669893089 1974849392 661274975 -139280118 -2025501701 -373874064 620532015
REM
REM S 3|1.8|5|6|7|30:31:32(qc=5)
REM O 2|1.5|12|13|15|20:21(qc=5)
REM Li 1|1.3|8|9|10|10U:20(qc=5)
REM Fe 3|2.2|2.0|1.0|8|9|10|40:41:32(qc=5)
REM 
CELL 1.54180    7.09115    8.14997    7.36978   72.37558   61.24300   50.99807
LATT -1
SFAC Li O  S  Fe 
Li     1  0.3092530000000 -0.4374640000000 -0.2736370000000 1.0  -0.03
Li     1  0.4643840000000 -0.0625360000000 -0.2736370000000 1.0  -0.03
Li     1 -0.3092530000000  0.4374640000000  0.2736370000000 1.0  -0.03
Li     1 -0.4643840000000  0.0625360000000  0.2736370000000 1.0  -0.03
Li     1 -0.5128560000000  0.2500000000000 -0.4742870000000 1.0   0.00
Li     1  0.5128560000000 -0.2500000000000  0.4742870000000 1.0   0.00
O      2  0.2607170000000  0.1744660000000 -0.4332410000000 1.0   0.30
O      2 -0.3274760000000  0.3255340000000 -0.4332410000000 1.0   0.30
O      2 -0.2607170000000 -0.1744660000000  0.4332410000000 1.0   0.30
O      2  0.3274760000000 -0.3255340000000  0.4332410000000 1.0   0.30
O      2 -0.3019160000000 -0.0201110000000 -0.2528100000000 1.0   0.34
O      2  0.0547260000000 -0.4798890000000 -0.2528100000000 1.0   0.34
O      2  0.3019160000000  0.0201110000000  0.2528100000000 1.0   0.34
O      2 -0.0547260000000  0.4798890000000  0.2528100000000 1.0   0.34
O      2  0.3425420000000 -0.2500000000000 -0.1850840000000 1.0   0.05
O      2 -0.3425420000000  0.2500000000000  0.1850840000000 1.0   0.05
S      3  0.0000000000000  0.0000000000000 -0.0000000000000 1.0   0.04
S      3 -0.5000000000000  0.5000000000000 -0.0000000000000 1.0   0.04
Fe     4 -0.2547430000000  0.1596420000000 -0.2103560000000 1.0   3.02
Fe     4 -0.0349010000000  0.3403580000000 -0.2103560000000 1.0   3.02
Fe     4  0.2547430000000 -0.1596420000000  0.2103560000000 1.0   3.02
Fe     4  0.0349010000000 -0.3403580000000  0.2103560000000 1.0   3.02
Fe     4  0.0274270000000  0.2500000000000 -0.5548530000000 1.0   3.49
Fe     4 -0.0274270000000 -0.2500000000000  0.5548530000000 1.0   3.49
END
