TITL LFSO-Li4Fe2S2O3-200911-080840-212337 0.0019 185.551233 -4.44801180E+003 -4.99706 5.20258 11 (P2) n - 1
REM
REM Run started: Fri, 11 Sep 2020 10:50:57 +0100 in /lustre/scratch/uccabz1/launch_tmp/launcher_2020-09-11-07-08-38-538327
REM CASTEP 20.1 from code version af48c487+ pr-geom-scf-spinfix Tue Jun 2 15:39:59 2020 +0100
REM Functional Perdew Burke Ernzerhof Relativity Koelling-Harmon Dispersion off
REM Cut-off 340.0000 eV Grid scale 1.7500 Gmax 16.5316 1/A FBSC none
REM MP grid 2 4 3 Offset 0.000 0.000 0.000 No. kpts 8 Spacing 0.07
REM Total runtime: 10238.2 s
REM Overall efficiency: 95.75 %
REM
REM
REM
REM compiler GCC version 4.9.2
REM options -cpp -iprefix /lustre/shared/ucl/apps/gcc/4.9.2/bin/../lib/gcc/x86_64-unknown-linux-gnu/4.9.2/ -mtune=corei7 -march=x86-64 -g -Og
REM COMMAND_LINE
REM seed -141748788 631437860 697812970 1803193070 -396287417 373872914 381165279 -674974628 -609982662 -200465643 -458057436 -47906797
REM
REM S 3|1.8|5|6|7|30:31:32(qc=5)
REM O 2|1.5|12|13|15|20:21(qc=5)
REM Li 1|1.3|8|9|10|10U:20(qc=5)
REM Fe 3|2.2|2.0|1.0|8|9|10|40:41:32(qc=5)
REM 
CELL 1.54180    7.92714    3.81801    6.23208   90.00000   90.00000  100.34871
LATT -1
SFAC Li O  S  Fe 
Li     1  0.1780380000000  0.1300310000000  0.2921490000000 1.0   0.01
Li     1 -0.1780380000000 -0.1300310000000  0.2921490000000 1.0   0.01
Li     1  0.1459090000000 -0.3245310000000  0.0382440000000 1.0   0.00
Li     1 -0.1459090000000  0.3245310000000  0.0382440000000 1.0   0.00
O      2 -0.2781470000000  0.3382380000000  0.2899970000000 1.0  -0.36
O      2  0.2781470000000 -0.3382380000000  0.2899970000000 1.0  -0.36
O      2  0.0000000000000  0.0000000000000  0.0954070000000 1.0  -0.03
S      3  0.3317420000000  0.1860680000000 -0.3188290000000 1.0   0.02
S      3 -0.3317420000000 -0.1860680000000 -0.3188290000000 1.0   0.02
Fe     4 -0.3972360000000  0.2885550000000 -0.4771270000000 1.0  -2.16
Fe     4  0.3972360000000 -0.2885550000000 -0.4771270000000 1.0  -2.16
END
