TITL LFSO-Li3Fe3SO5-200927-062157-884111 0.0044 394.048465 -1.13630540E+004 21.5862 21.8540 24 (Ama2) n - 1
REM
REM Run started: Sun, 27 Sep 2020 19:13:29 +0100 in /lustre/scratch/uccabz1/launch_tmp/launcher_2020-09-27-05-21-54-518656
REM CASTEP 20.1 from code version af48c487+ pr-geom-scf-spinfix Tue Jun 2 15:39:59 2020 +0100
REM Functional Perdew Burke Ernzerhof Relativity Koelling-Harmon Dispersion off
REM Cut-off 340.0000 eV Grid scale 1.7500 Gmax 16.5316 1/A FBSC none
REM MP grid 3 2 2 Offset 0.000 0.000 0.000 No. kpts 4 Spacing 0.07
REM Total runtime: 49104.8 s
REM Overall efficiency: 95.3077 %
REM
REM
REM
REM compiler GCC version 4.9.2
REM options -cpp -iprefix /lustre/shared/ucl/apps/gcc/4.9.2/bin/../lib/gcc/x86_64-unknown-linux-gnu/4.9.2/ -mtune=corei7 -march=x86-64 -g -Og
REM COMMAND_LINE
REM seed 583774030 -1563298194 2044912979 2030375148 -202017202 -1680618788 -1623117359 2146208063 -200242070 -1510880342 461826327 -1244793686
REM
REM S 3|1.8|5|6|7|30:31:32(qc=5)
REM O 2|1.5|12|13|15|20:21(qc=5)
REM Li 1|1.3|8|9|10|10U:20(qc=5)
REM Fe 3|2.2|2.0|1.0|8|9|10|40:41:32(qc=5)
REM 
CELL 1.54180    6.76165    7.65059    7.65059   95.34629   90.00000   90.00000
LATT -1
SFAC Li O  S  Fe 
Li     1 -0.5410100000000 -0.0860290000000  0.4820200000000 1.0   0.01
Li     1  0.5410100000000 -0.4820200000000  0.0860290000000 1.0   0.01
Li     1 -0.0410100000000 -0.4820200000000  0.0860290000000 1.0   0.01
Li     1  0.0410100000000 -0.0860290000000  0.4820200000000 1.0   0.01
Li     1 -0.2500000000000 -0.1013140000000  0.0569750000000 1.0  -0.04
Li     1  0.2500000000000 -0.0569750000000  0.1013140000000 1.0  -0.04
O      2 -0.4546080000000  0.1348240000000 -0.4054410000000 1.0   0.19
O      2  0.4546080000000  0.4054410000000 -0.1348240000000 1.0   0.19
O      2  0.0453920000000  0.4054410000000 -0.1348240000000 1.0   0.19
O      2 -0.0453920000000  0.1348240000000 -0.4054410000000 1.0   0.19
O      2  0.4754220000000  0.0103900000000  0.2633610000000 1.0   0.43
O      2 -0.4754220000000 -0.2633610000000 -0.0103900000000 1.0   0.43
O      2 -0.0245780000000 -0.2633610000000 -0.0103900000000 1.0   0.43
O      2  0.0245780000000  0.0103900000000  0.2633610000000 1.0   0.43
O      2  0.2500000000000  0.0508220000000 -0.1195150000000 1.0   0.31
O      2 -0.2500000000000  0.1195150000000 -0.0508220000000 1.0   0.31
S      3 -0.2500000000000  0.4459190000000  0.3280110000000 1.0   0.18
S      3  0.2500000000000 -0.3280110000000 -0.4459190000000 1.0   0.18
Fe     4  0.4366980000000 -0.3687500000000 -0.2048320000000 1.0   3.33
Fe     4 -0.4366980000000  0.2048320000000  0.3687500000000 1.0   3.33
Fe     4 -0.0633020000000  0.2048320000000  0.3687500000000 1.0   3.33
Fe     4  0.0633020000000 -0.3687500000000 -0.2048320000000 1.0   3.33
Fe     4  0.2500000000000  0.2585030000000 -0.1548530000000 1.0   2.43
Fe     4 -0.2500000000000  0.1548530000000 -0.2585030000000 1.0   2.43
END
