TITL LFSO-Li3Fe3SO5-200926-225213-f5b4fd -0.0513 313.247536 -1.13650543E+004 17.9850 18.6915 24 (R3) n - 1
REM
REM Run started: Sun, 27 Sep 2020 09:45:58 +0100 in /lustre/scratch/uccabz1/launch_tmp/launcher_2020-09-26-21-52-11-857324
REM CASTEP 20.1 from code version af48c487+ pr-geom-scf-spinfix Tue Jun 2 15:39:59 2020 +0100
REM Functional Perdew Burke Ernzerhof Relativity Koelling-Harmon Dispersion off
REM Cut-off 340.0000 eV Grid scale 1.7500 Gmax 16.5316 1/A FBSC none
REM MP grid 3 3 2 Offset 0.000 0.000 0.000 No. kpts 7 Spacing 0.07
REM Total runtime: 39431.4 s
REM Overall efficiency: 80.9091 %
REM
REM
REM
REM compiler GCC version 4.9.2
REM options -cpp -iprefix /lustre/shared/ucl/apps/gcc/4.9.2/bin/../lib/gcc/x86_64-unknown-linux-gnu/4.9.2/ -mtune=corei7 -march=x86-64 -g -Og
REM COMMAND_LINE
REM seed -1262697959 -1798756704 -1822979036 885586007 1051551566 1750801734 -377701922 414896469 -1598864885 1013810253 252642253 -146065744
REM
REM S 3|1.8|5|6|7|30:31:32(qc=5)
REM O 2|1.5|12|13|15|20:21(qc=5)
REM Li 1|1.3|8|9|10|10U:20(qc=5)
REM Fe 3|2.2|2.0|1.0|8|9|10|40:41:32(qc=5)
REM 
CELL 1.54180    7.03152    7.03152    8.36666   65.15211   65.15211   60.00000
LATT -1
SFAC Li O  S  Fe 
Li     1 -0.1077700000000 -0.5861650000000  0.4619480000000 1.0  -0.01
Li     1 -0.5861650000000  0.2319860000000  0.4619480000000 1.0  -0.01
Li     1  0.2319860000000 -0.1077700000000  0.4619480000000 1.0  -0.01
Li     1  0.2506100000000 -0.2652180000000  0.2270180000000 1.0   0.00
Li     1 -0.2652180000000 -0.2124100000000  0.2270180000000 1.0   0.00
Li     1 -0.2124100000000  0.2506100000000  0.2270180000000 1.0   0.00
O      2 -0.4155890000000  0.0973730000000  0.2564470000000 1.0   0.18
O      2  0.0973730000000  0.0617680000000  0.2564470000000 1.0   0.18
O      2  0.0617680000000 -0.4155890000000  0.2564470000000 1.0   0.18
O      2 -0.2839460000000  0.4142760000000 -0.0480580000000 1.0   0.23
O      2  0.4142760000000 -0.0822730000000 -0.0480580000000 1.0   0.23
O      2 -0.0822730000000 -0.2839460000000 -0.0480580000000 1.0   0.23
O      2  0.3035940000000 -0.0936160000000 -0.3355330000000 1.0   0.05
O      2 -0.0936160000000  0.1255550000000 -0.3355330000000 1.0   0.05
O      2  0.1255550000000  0.3035940000000 -0.3355330000000 1.0   0.05
O      2 -0.2174840000000 -0.2174840000000 -0.3475480000000 1.0   0.49
S      3 -0.4708300000000 -0.4708300000000  0.4124900000000 1.0   0.05
S      3  0.0782190000000  0.0782190000000 -0.2346560000000 1.0   0.01
Fe     4 -0.4743210000000 -0.3133210000000 -0.1830160000000 1.0   3.43
Fe     4 -0.3133210000000 -0.0293420000000 -0.1830160000000 1.0   3.43
Fe     4 -0.0293420000000 -0.4743210000000 -0.1830160000000 1.0   3.43
Fe     4  0.5262590000000  0.2661770000000  0.0479920000000 1.0   1.93
Fe     4  0.2661770000000  0.1595720000000  0.0479920000000 1.0   1.93
Fe     4  0.1595720000000  0.5262590000000  0.0479920000000 1.0   1.93
END
