TITL LFSO-Li4Fe3SO4-200930-111335-f4486d 0.1259 371.305125 -5.44238294E+003 5.46593 8.09371 12 (Cmmm) n - 1
REM
REM Run started: Wed, 30 Sep 2020 14:58:59 +0100 in /lustre/scratch/uccabz1/launch_tmp/launcher_2020-09-30-10-13-33-232737
REM CASTEP 20.1 from code version af48c487+ pr-geom-scf-spinfix Tue Jun 2 15:39:59 2020 +0100
REM Functional Perdew Burke Ernzerhof Relativity Koelling-Harmon Dispersion off
REM Cut-off 340.0000 eV Grid scale 1.7500 Gmax 16.5316 1/A FBSC none
REM MP grid 4 2 2 Offset 0.000 0.000 0.000 No. kpts 4 Spacing 0.07
REM Total runtime: 15237 s
REM Overall efficiency: 86.6667 %
REM
REM
REM
REM compiler GCC version 4.9.2
REM options -cpp -iprefix /lustre/shared/ucl/apps/gcc/4.9.2/bin/../lib/gcc/x86_64-unknown-linux-gnu/4.9.2/ -mtune=corei7 -march=x86-64 -g -Og
REM COMMAND_LINE
REM seed 869182908 -370440631 -1518961636 -2013151495 716734374 1665370529 -1058311415 -1560840774 917864157 -825596817 928470560 488923452
REM
REM S 3|1.8|5|6|7|30:31:32(qc=5)
REM O 2|1.5|12|13|15|20:21(qc=5)
REM Li 1|1.3|8|9|10|10U:20(qc=5)
REM Fe 3|2.2|2.0|1.0|8|9|10|40:41:32(qc=5)
REM 
CELL 1.54180    3.85015   10.78066   10.44408  121.07189   90.00000   90.00000
LATT -1
SFAC Li O  S  Fe 
Li     1  0.1470330000000 -0.6147760000000  0.2215520000000 1.0  -0.01
Li     1  0.1470330000000  0.6147760000000 -0.2215520000000 1.0  -0.01
Li     1  0.1470330000000 -0.1636720000000  0.2215520000000 1.0  -0.01
Li     1  0.1470330000000  0.1636720000000 -0.2215520000000 1.0  -0.01
O      2 -0.3531310000000  0.3645520000000  0.1851500000000 1.0   0.23
O      2 -0.3531310000000 -0.3645520000000 -0.1851500000000 1.0   0.23
O      2 -0.3531310000000 -0.1794020000000  0.1851500000000 1.0   0.23
O      2 -0.3531310000000  0.1794020000000 -0.1851500000000 1.0   0.23
S      3  0.1465320000000  0.0000000000000  0.0000000000000 1.0   0.11
Fe     4 -0.3539700000000 -0.2191530000000  0.0000000000000 1.0   2.88
Fe     4 -0.3539700000000  0.2191530000000  0.0000000000000 1.0   2.88
Fe     4  0.6464890000000  0.0000000000000  0.0000000000000 1.0  -1.31
END
