TITL LFSO-Li3Fe3S2O4-200929-161027-cd54ee 0.0417 331.288006 -1.10994013E+004 22.0132 22.3959 24 (Pba2) n - 1
REM
REM Run started: Tue, 29 Sep 2020 21:25:34 +0100 in /lustre/scratch/uccabz1/launch_tmp/launcher_2020-09-29-15-10-25-206738
REM CASTEP 20.1 from code version af48c487+ pr-geom-scf-spinfix Tue Jun 2 15:39:59 2020 +0100
REM Functional Perdew Burke Ernzerhof Relativity Koelling-Harmon Dispersion off
REM Cut-off 340.0000 eV Grid scale 1.7500 Gmax 16.5316 1/A FBSC none
REM MP grid 3 2 3 Offset 0.000 0.000 0.000 No. kpts 4 Spacing 0.07
REM Total runtime: 15052 s
REM Overall efficiency: 78 %
REM
REM
REM
REM compiler GCC version 4.9.2
REM options -cpp -iprefix /lustre/shared/ucl/apps/gcc/4.9.2/bin/../lib/gcc/x86_64-unknown-linux-gnu/4.9.2/ -mtune=corei7 -march=x86-64 -g -Og
REM COMMAND_LINE
REM seed 1283011228 -173728720 592476966 1875473339 -362637054 -591086510 -1776168004 483541849 699902905 45324306 -1668087684 -1066882413
REM
REM S 3|1.8|5|6|7|30:31:32(qc=5)
REM O 2|1.5|12|13|15|20:21(qc=5)
REM Li 1|1.3|8|9|10|10U:20(qc=5)
REM Fe 3|2.2|2.0|1.0|8|9|10|40:41:32(qc=5)
REM 
CELL 1.54180    5.91315    8.25184    6.78947   90.00000   90.00000   90.00000
LATT -1
SFAC Li O  S  Fe 
Li     1  0.2631290000000 -0.4016140000000 -0.4846540000000 1.0   0.06
Li     1 -0.2631290000000 -0.4016140000000  0.4846540000000 1.0   0.06
Li     1 -0.2368710000000 -0.4016140000000 -0.0153460000000 1.0   0.06
Li     1  0.2368710000000 -0.4016140000000  0.0153460000000 1.0   0.06
Li     1  0.5000000000000  0.2673550000000 -0.0000000000000 1.0  -0.03
Li     1 -0.0000000000000  0.2673550000000  0.5000000000000 1.0  -0.03
O      2  0.2804860000000  0.3900020000000  0.4393680000000 1.0   0.33
O      2 -0.2804860000000  0.3900020000000 -0.4393680000000 1.0   0.33
O      2 -0.2195140000000  0.3900020000000  0.0606320000000 1.0   0.33
O      2  0.2195140000000  0.3900020000000 -0.0606320000000 1.0   0.33
O      2  0.2676360000000  0.0831760000000  0.5123330000000 1.0   0.30
O      2 -0.2676360000000  0.0831760000000 -0.5123330000000 1.0   0.30
O      2 -0.2323640000000  0.0831760000000 -0.0123330000000 1.0   0.30
O      2  0.2323640000000  0.0831760000000  0.0123330000000 1.0   0.30
S      3 -0.0077760000000 -0.2366090000000  0.2529070000000 1.0   0.11
S      3  0.0077760000000 -0.2366090000000 -0.2529070000000 1.0   0.11
S      3  0.4922240000000 -0.2366090000000  0.2470930000000 1.0   0.11
S      3 -0.4922240000000 -0.2366090000000 -0.2470930000000 1.0   0.11
Fe     4 -0.7421800000000 -0.0286620000000 -0.2384970000000 1.0   3.33
Fe     4  0.7421800000000 -0.0286620000000  0.2384970000000 1.0   3.33
Fe     4 -0.2421800000000 -0.0286620000000 -0.2615030000000 1.0   3.33
Fe     4  0.2421800000000 -0.0286620000000  0.2615030000000 1.0   3.33
Fe     4 -0.0000000000000  0.2610530000000 -0.0000000000000 1.0   2.79
Fe     4 -0.5000000000000  0.2610530000000  0.5000000000000 1.0   2.79
END
