TITL LFSO-Li4Fe3S2O3-200928-045858-0f6b8a 0.0412 199.755250 -5.31242582E+003 11.9999 12.1852 12 (R3) n - 1
REM
REM Run started: Mon, 28 Sep 2020 09:36:56 +0100 in /scratch/scratch/uccabz1/launch_tmp/launcher_2020-09-28-03-58-56-524632
REM CASTEP 19.11| from code version Version unavailable
REM Functional Perdew Burke Ernzerhof Relativity Koelling-Harmon Dispersion off
REM Cut-off 340.0000 eV Grid scale 1.7500 Gmax 16.5316 1/A FBSC none
REM MP grid 3 3 3 Offset 0.000 0.000 0.000 No. kpts 6 Spacing 0.07
REM Total runtime: 18075.2 s
REM Overall efficiency: 97.3846 %
REM
REM
REM
REM compiler GCC version 4.9.2
REM options -cpp -iprefix /scratch/UCL/applications/gcc/4.9.2/bin/../lib/gcc/x86_64-unknown-linux-gnu/4.9.2/ -mtune=corei7 -march=x86-64 -g -O2
REM COMMAND_LINE
REM seed -1746871901 -484647881 -1622135300 -2070883757 -1975282649 619306097 765600484 1557529159 775670378 -2140713910 1115904784 629882064
REM
REM S 3|1.8|5|6|7|30:31:32(qc=5)
REM O 2|1.5|12|13|15|20:21(qc=5)
REM Li 1|1.3|8|9|10|10U:20(qc=5)
REM Fe 3|2.2|2.0|1.0|8|9|10|40:41:32(qc=5)
REM 
CELL 1.54180    6.97490    6.97490    6.97490   52.85828   52.85827   52.85827
LATT -1
SFAC Li O  S  Fe 
Li     1 -0.2976170000000  0.1438230000000  0.3620700000000 1.0   0.02
Li     1  0.1438230000000  0.3620700000000 -0.2976170000000 1.0   0.02
Li     1  0.3620700000000 -0.2976170000000  0.1438230000000 1.0   0.02
Li     1 -0.0542530000000 -0.0542530000000 -0.0542530000000 1.0  -0.03
O      2 -0.3705930000000  0.1294370000000  0.1502020000000 1.0   0.30
O      2  0.1294370000000  0.1502020000000 -0.3705930000000 1.0   0.30
O      2  0.1502020000000 -0.3705930000000  0.1294370000000 1.0   0.30
S      3 -0.2860640000000 -0.2860640000000 -0.2860640000000 1.0   0.31
S      3  0.5079830000000  0.5079830000000  0.5079830000000 1.0   0.19
Fe     4 -0.5548050000000 -0.0921920000000  0.4773740000000 1.0   3.52
Fe     4 -0.0921920000000  0.4773740000000 -0.5548050000000 1.0   3.52
Fe     4  0.4773740000000 -0.5548050000000 -0.0921920000000 1.0   3.52
END
