TITL LFSO-LiFe3S2O3-200909-155745-8ed64f 0.0705 126.642775 -4.71239553E+003 8.92611 9.11666 9 (P31m) n - 1
REM
REM Run started: Wed, 09 Sep 2020 16:36:08 +0100 in /lustre/scratch/uccabz1/launch_tmp/launcher_2020-09-09-14-57-43-873124
REM CASTEP 20.1 from code version af48c487+ pr-geom-scf-spinfix Tue Jun 2 15:39:59 2020 +0100
REM Functional Perdew Burke Ernzerhof Relativity Koelling-Harmon Dispersion off
REM Cut-off 340.0000 eV Grid scale 1.7500 Gmax 16.5316 1/A FBSC none
REM MP grid 3 4 4 Offset 0.000 0.000 0.000 No. kpts 24 Spacing 0.07
REM Total runtime: 3599.8 s
REM Overall efficiency: 91.4 %
REM
REM
REM
REM compiler GCC version 4.9.2
REM options -cpp -iprefix /lustre/shared/ucl/apps/gcc/4.9.2/bin/../lib/gcc/x86_64-unknown-linux-gnu/4.9.2/ -mtune=corei7 -march=x86-64 -g -Og
REM COMMAND_LINE
REM seed 1353428095 -733529589 767820517 -1755654999 920477412 -1903064771 1251398167 262188053 -1627361928 -929034416 1652494874 332944259
REM
REM S 3|1.8|5|6|7|30:31:32(qc=5)
REM O 2|1.5|12|13|15|20:21(qc=5)
REM Li 1|1.3|8|9|10|10U:20(qc=5)
REM Fe 3|2.2|2.0|1.0|8|9|10|40:41:32(qc=5)
REM 
CELL 1.54180    5.45082    5.17957    5.17957  120.00000   90.00000   90.00000
LATT -1
SFAC Li O  S  Fe 
Li     1  0.0870780000000  0.0000000000000 -0.0000000000000 1.0   0.01
O      2  0.3183120000000  0.2986360000000  0.0007610000000 1.0   0.32
O      2  0.3183120000000 -0.0007610000000  0.2978750000000 1.0   0.32
O      2  0.3183120000000 -0.2978750000000 -0.2986360000000 1.0   0.32
S      3 -0.2357630000000  0.3333330000000 -0.3333330000000 1.0  -0.00
S      3 -0.2369080000000 -0.3333330000000  0.3333330000000 1.0  -0.00
Fe     4 -0.5143590000000 -0.3543200000000 -0.0015120000000 1.0   2.65
Fe     4 -0.5143590000000  0.0015120000000 -0.3528080000000 1.0   2.65
Fe     4 -0.5143590000000  0.3528080000000  0.3543200000000 1.0   2.65
END
