TITL LFSO-Li2Fe4SO4-200911-233704-fae2a2 0.0466 282.422277 -1.18185098E+004 -23.5036 24.0745 22 (P2) n - 1
REM
REM Run started: Sat, 12 Sep 2020 19:05:59 +0100 in /lustre/scratch/uccabz1/launch_tmp/launcher_2020-09-12-07-41-47-430963
REM CASTEP 20.1 from code version af48c487+ pr-geom-scf-spinfix Tue Jun 2 15:39:59 2020 +0100
REM Functional Perdew Burke Ernzerhof Relativity Koelling-Harmon Dispersion off
REM Cut-off 340.0000 eV Grid scale 1.7500 Gmax 16.5316 1/A FBSC none
REM MP grid 3 3 3 Offset 0.000 0.000 0.000 No. kpts 10 Spacing 0.07
REM Total runtime: 59271.4 s
REM Overall efficiency: 79.5385 %
REM
REM
REM
REM compiler GCC version 4.9.2
REM options -cpp -iprefix /lustre/shared/ucl/apps/gcc/4.9.2/bin/../lib/gcc/x86_64-unknown-linux-gnu/4.9.2/ -mtune=corei7 -march=x86-64 -g -Og
REM COMMAND_LINE
REM seed 2022680915 -771629510 1698118936 2022780818 1773519268 -831449868 1656103333 221980604 491407552 1841700636 -723189542 1272987669
REM
REM S 3|1.8|5|6|7|30:31:32(qc=5)
REM O 2|1.5|12|13|15|20:21(qc=5)
REM Li 1|1.3|8|9|10|10U:20(qc=5)
REM Fe 3|2.2|2.0|1.0|8|9|10|40:41:32(qc=5)
REM 
CELL 1.54180    6.95702    5.89275    6.89278   90.00000   90.00000   91.89425
LATT -1
SFAC Li O  S  Fe 
Li     1  0.0896590000000  0.2032830000000 -0.0844390000000 1.0   0.06
Li     1 -0.0896590000000 -0.2032830000000 -0.0844390000000 1.0   0.06
Li     1  0.3318180000000  0.5124010000000  0.1325190000000 1.0   0.00
Li     1 -0.3318180000000 -0.5124010000000  0.1325190000000 1.0   0.00
O      2 -0.1755440000000 -0.4955780000000  0.3694930000000 1.0  -0.12
O      2  0.1755440000000  0.4955780000000  0.3694930000000 1.0  -0.12
O      2 -0.4804220000000 -0.2460400000000  0.1810230000000 1.0  -0.40
O      2  0.4804220000000  0.2460400000000  0.1810230000000 1.0  -0.40
O      2  0.2643110000000  0.4575730000000 -0.1453900000000 1.0  -0.23
O      2 -0.2643110000000 -0.4575730000000 -0.1453900000000 1.0  -0.23
O      2 -0.1780520000000  0.0955840000000 -0.0255370000000 1.0  -0.21
O      2  0.1780520000000 -0.0955840000000 -0.0255370000000 1.0  -0.21
S      3 -0.2371090000000 -0.0154260000000 -0.4761580000000 1.0  -0.03
S      3  0.2371090000000  0.0154260000000 -0.4761580000000 1.0  -0.03
Fe     4 -0.2608330000000  0.2552670000000 -0.2394700000000 1.0  -2.52
Fe     4  0.2608330000000 -0.2552670000000 -0.2394700000000 1.0  -2.52
Fe     4 -0.0134060000000  0.2691620000000  0.4607970000000 1.0  -2.11
Fe     4  0.0134060000000 -0.2691620000000  0.4607970000000 1.0  -2.11
Fe     4  0.3262910000000 -0.0286640000000  0.1989670000000 1.0  -3.34
Fe     4 -0.3262910000000  0.0286640000000  0.1989670000000 1.0  -3.34
Fe     4 -0.3182850000000 -0.4089460000000 -0.4087050000000 1.0  -2.84
Fe     4  0.3182850000000  0.4089460000000 -0.4087050000000 1.0  -2.84
END
