TITL LFSO-Li4Fe2S2O3-200911-103811-392168 -0.0949 321.279378 -8.89809019E+003 -12.0043 12.5627 22 (Cc) n - 1
REM
REM Run started: Sat, 12 Sep 2020 09:33:36 +0100 in /lustre/scratch/uccabz1/launch_tmp/launcher_2020-09-11-13-40-37-831815
REM CASTEP 20.1 from code version af48c487+ pr-geom-scf-spinfix Tue Jun 2 15:39:59 2020 +0100
REM Functional Perdew Burke Ernzerhof Relativity Koelling-Harmon Dispersion off
REM Cut-off 340.0000 eV Grid scale 1.7500 Gmax 16.5316 1/A FBSC none
REM MP grid 3 3 3 Offset 0.000 0.000 0.000 No. kpts 10 Spacing 0.07
REM Total runtime: 89602.2 s
REM Overall efficiency: 74.7143 %
REM
REM
REM
REM compiler GCC version 4.9.2
REM options -cpp -iprefix /lustre/shared/ucl/apps/gcc/4.9.2/bin/../lib/gcc/x86_64-unknown-linux-gnu/4.9.2/ -mtune=corei7 -march=x86-64 -g -Og
REM COMMAND_LINE
REM seed -848877025 734681641 42461381 912428308 317798971 -552517084 -1639261570 -82372836 1483520836 1474580106 -1298306751 -1501096202
REM
REM S 3|1.8|5|6|7|30:31:32(qc=5)
REM O 2|1.5|12|13|15|20:21(qc=5)
REM Li 1|1.3|8|9|10|10U:20(qc=5)
REM Fe 3|2.2|2.0|1.0|8|9|10|40:41:32(qc=5)
REM 
CELL 1.54180    6.49142    8.31297    8.31297  131.27131   97.18751   97.18751
LATT -1
SFAC Li O  S  Fe 
Li     1  0.3365780000000 -0.0061090000000 -0.5676670000000 1.0   0.01
Li     1 -0.1634220000000 -0.5676670000000 -0.0061090000000 1.0   0.01
Li     1 -0.1075990000000  0.0127760000000  0.3506380000000 1.0   0.01
Li     1 -0.6075990000000  0.3506380000000  0.0127760000000 1.0   0.01
Li     1  0.3553070000000  0.2919790000000  0.3140600000000 1.0   0.02
Li     1 -0.1446930000000  0.3140600000000  0.2919790000000 1.0   0.02
Li     1 -0.4611200000000  0.0566150000000 -0.0406930000000 1.0  -0.01
Li     1  0.0388800000000 -0.0406930000000  0.0566150000000 1.0  -0.01
O      2  0.1757930000000  0.1552060000000  0.3819340000000 1.0  -0.14
O      2 -0.3242070000000  0.3819340000000  0.1552060000000 1.0  -0.14
O      2 -0.2816900000000  0.0117830000000  0.1348250000000 1.0  -0.20
O      2  0.2183100000000  0.1348250000000  0.0117830000000 1.0  -0.20
O      2  0.2369170000000  0.1517810000000 -0.3025380000000 1.0  -0.18
O      2 -0.2630830000000 -0.3025380000000  0.1517810000000 1.0  -0.18
S      3  0.3844400000000 -0.3660660000000 -0.3113950000000 1.0  -0.12
S      3 -0.1155600000000 -0.3113950000000 -0.3660660000000 1.0  -0.12
S      3 -0.2763060000000  0.0409490000000 -0.3691730000000 1.0  -0.17
S      3  0.2236940000000 -0.3691730000000  0.0409490000000 1.0  -0.17
Fe     4  0.2452820000000 -0.6209950000000 -0.3129750000000 1.0  -2.52
Fe     4 -0.2547180000000 -0.3129750000000 -0.6209950000000 1.0  -2.52
Fe     4  0.5500020000000 -0.2568930000000  0.0103540000000 1.0  -2.69
Fe     4  0.0500020000000  0.0103540000000 -0.2568930000000 1.0  -2.69
END
