TITL LFSO-LiFe3S3O2-200909-151002-c05326 -0.0500 138.647134 -4.57729417E+003 6.88071 7.16986 9 (P-1) n - 1
REM
REM Run started: Wed, 09 Sep 2020 18:53:23 +0100 in /lustre/scratch/uccabz1/launch_tmp/launcher_2020-09-09-14-10-00-897489
REM CASTEP 20.1 from code version af48c487+ pr-geom-scf-spinfix Tue Jun 2 15:39:59 2020 +0100
REM Functional Perdew Burke Ernzerhof Relativity Koelling-Harmon Dispersion off
REM Cut-off 340.0000 eV Grid scale 1.7500 Gmax 16.5316 1/A FBSC none
REM MP grid 5 3 2 Offset 0.000 0.000 0.000 No. kpts 15 Spacing 0.07
REM Total runtime: 13473.8 s
REM Overall efficiency: 95.7143 %
REM
REM
REM
REM compiler GCC version 4.9.2
REM options -cpp -iprefix /lustre/shared/ucl/apps/gcc/4.9.2/bin/../lib/gcc/x86_64-unknown-linux-gnu/4.9.2/ -mtune=corei7 -march=x86-64 -g -Og
REM COMMAND_LINE
REM seed -1354187069 1068414018 -437747793 1388236126 125570196 -700601811 -2012877514 -151162887 -77754938 -1508371639 -540113787 1316994014
REM
REM S 3|1.8|5|6|7|30:31:32(qc=5)
REM O 2|1.5|12|13|15|20:21(qc=5)
REM Li 1|1.3|8|9|10|10U:20(qc=5)
REM Fe 3|2.2|2.0|1.0|8|9|10|40:41:32(qc=5)
REM 
CELL 1.54180    3.17396    5.97226    8.21578   74.68497   76.34202   69.19005
LATT -1
SFAC Li O  S  Fe 
Li     1  0.5000000000000 -0.5000000000000  0.0000000000000 1.0  -0.01
O      2  0.2016870000000 -0.0377540000000 -0.3752940000000 1.0   0.16
O      2 -0.2016870000000  0.0377540000000  0.3752940000000 1.0   0.16
S      3  0.5845050000000 -0.2391870000000  0.1464350000000 1.0  -0.01
S      3 -0.5845050000000  0.2391870000000 -0.1464350000000 1.0  -0.01
S      3  0.0000000000000  0.5000000000000  0.5000000000000 1.0   0.15
Fe     4  0.3844260000000 -0.1705000000000  0.4216670000000 1.0   2.05
Fe     4 -0.3844260000000  0.1705000000000 -0.4216670000000 1.0   2.05
Fe     4  0.0000000000000  0.0000000000000  0.0000000000000 1.0   2.34
END
