TITL LFSO-Li2Fe3S3O-200912-205827-a54bb0 -0.0326 226.192427 -4.33917032E+003 11.8741 11.9918 9 (C2) n - 1
REM
REM Run started: Sun, 13 Sep 2020 17:17:02 +0100 in /lustre/scratch/uccabz1/launch_tmp/launcher_2020-09-12-19-58-25-569034
REM CASTEP 20.1 from code version af48c487+ pr-geom-scf-spinfix Tue Jun 2 15:39:59 2020 +0100
REM Functional Perdew Burke Ernzerhof Relativity Koelling-Harmon Dispersion off
REM Cut-off 340.0000 eV Grid scale 1.7500 Gmax 16.5316 1/A FBSC none
REM MP grid 5 5 3 Offset 0.000 0.000 0.000 No. kpts 24 Spacing 0.07
REM Total runtime: 73817.6 s
REM Overall efficiency: 97.4545 %
REM
REM
REM
REM compiler GCC version 4.9.2
REM options -cpp -iprefix /lustre/shared/ucl/apps/gcc/4.9.2/bin/../lib/gcc/x86_64-unknown-linux-gnu/4.9.2/ -mtune=corei7 -march=x86-64 -g -Og
REM COMMAND_LINE
REM seed 521532075 1093092540 -894552013 163974525 -1568432350 775226093 94568194 -1347065719 -1560548707 270747596 -2065271308 -1638574166
REM
REM S 3|1.8|5|6|7|30:31:32(qc=5)
REM O 2|1.5|12|13|15|20:21(qc=5)
REM Li 1|1.3|8|9|10|10U:20(qc=5)
REM Fe 3|2.2|2.0|1.0|8|9|10|40:41:32(qc=5)
REM 
CELL 1.54180    7.27574    7.27574   16.10754  146.15227  146.15227   58.06849
LATT -1
SFAC Li O  S  Fe 
Li     1 -0.1334850000000  0.2979530000000 -0.1164390000000 1.0   0.00
Li     1 -0.2979530000000  0.1334850000000  0.1164390000000 1.0   0.00
O      2 -0.1541900000000  0.1541900000000  0.5000000000000 1.0   0.37
S      3  0.2201040000000  0.1719680000000 -0.1363770000000 1.0   0.35
S      3 -0.1719680000000 -0.2201040000000  0.1363770000000 1.0   0.35
S      3  0.2778590000000 -0.2778590000000  0.5000000000000 1.0   0.23
Fe     4 -0.2322860000000 -0.2603070000000  0.2413120000000 1.0   3.56
Fe     4  0.2603070000000  0.2322860000000 -0.2413120000000 1.0   3.56
Fe     4 -0.4074940000000  0.4074940000000  0.5000000000000 1.0   3.46
END
