TITL LFSO-Li4Fe3S2O3-200928-060535-573f6e -0.0039 187.242498 -5.31093189E+003 10.3745 10.8438 12 (P2) n - 1
REM
REM Run started: Mon, 28 Sep 2020 21:13:33 +0100 in /scratch/scratch/uccabz1/launch_tmp/launcher_2020-09-28-05-05-33-400712
REM CASTEP 19.11| from code version Version unavailable
REM Functional Perdew Burke Ernzerhof Relativity Koelling-Harmon Dispersion off
REM Cut-off 340.0000 eV Grid scale 1.7500 Gmax 16.5316 1/A FBSC none
REM MP grid 5 4 1 Offset 0.000 0.000 0.000 No. kpts 6 Spacing 0.07
REM Total runtime: 54683.9 s
REM Overall efficiency: 81.75 %
REM
REM
REM
REM compiler GCC version 4.9.2
REM options -cpp -iprefix /scratch/UCL/applications/gcc/4.9.2/bin/../lib/gcc/x86_64-unknown-linux-gnu/4.9.2/ -mtune=corei7 -march=x86-64 -g -O2
REM COMMAND_LINE
REM seed 1178716601 -1216219107 -1888846056 23695341 -870273018 -1537026504 393398250 1018763890 -1639056612 -251466198 253912711 184383453
REM
REM S 3|1.8|5|6|7|30:31:32(qc=5)
REM O 2|1.5|12|13|15|20:21(qc=5)
REM Li 1|1.3|8|9|10|10U:20(qc=5)
REM Fe 3|2.2|2.0|1.0|8|9|10|40:41:32(qc=5)
REM 
CELL 1.54180    3.41144    3.76911   15.80232   90.00000  112.84978   90.00000
LATT -1
SFAC Li O  S  Fe 
Li     1 -0.4033710000000 -0.2707590000000 -0.1144240000000 1.0  -0.15
Li     1  0.4033710000000 -0.2707590000000  0.1144240000000 1.0  -0.15
Li     1  0.0977880000000 -0.2710990000000 -0.3904220000000 1.0  -0.01
Li     1 -0.0977880000000 -0.2710990000000  0.3904220000000 1.0  -0.01
O      2 -0.4240690000000  0.2316070000000 -0.1303600000000 1.0   0.22
O      2  0.4240690000000  0.2316070000000  0.1303600000000 1.0   0.22
O      2 -0.5000000000000 -0.2465150000000  0.5000000000000 1.0   0.28
S      3  0.3318080000000  0.2530950000000  0.3415610000000 1.0   0.19
S      3 -0.3318080000000  0.2530950000000 -0.3415610000000 1.0   0.19
Fe     4  0.0312880000000  0.2274630000000  0.1919580000000 1.0   3.30
Fe     4 -0.0312880000000  0.2274630000000 -0.1919580000000 1.0   3.30
Fe     4 -0.5000000000000 -0.7461530000000 -0.5000000000000 1.0   3.01
END
