TITL LFSO-Li6FeSO3-200909-205622-b67830 0.2038 140.158391 -3.68040888E+003 4.00000 4.09075 11 (Cm) n - 1
REM
REM Run started: Wed, 09 Sep 2020 23:38:47 +0100 in /lustre/scratch/uccabz1/launch_tmp/launcher_2020-09-09-19-56-20-371769
REM CASTEP 20.1 from code version af48c487+ pr-geom-scf-spinfix Tue Jun 2 15:39:59 2020 +0100
REM Functional Perdew Burke Ernzerhof Relativity Koelling-Harmon Dispersion off
REM Cut-off 340.0000 eV Grid scale 1.7500 Gmax 16.5316 1/A FBSC none
REM MP grid 4 4 3 Offset 0.000 0.000 0.000 No. kpts 16 Spacing 0.07
REM Total runtime: 11208.2 s
REM Overall efficiency: 76.3846 %
REM
REM
REM
REM compiler GCC version 4.9.2
REM options -cpp -iprefix /lustre/shared/ucl/apps/gcc/4.9.2/bin/../lib/gcc/x86_64-unknown-linux-gnu/4.9.2/ -mtune=corei7 -march=x86-64 -g -Og
REM COMMAND_LINE
REM seed 983257008 448093651 1989517132 1329962419 -751640264 1193877699 -205425871 -1322610860 1758477146 -112085963 1716009115 2037672514
REM
REM S 3|1.8|5|6|7|30:31:32(qc=5)
REM O 2|1.5|12|13|15|20:21(qc=5)
REM Li 1|1.3|8|9|10|10U:20(qc=5)
REM Fe 3|2.2|2.0|1.0|8|9|10|40:41:32(qc=5)
REM 
CELL 1.54180    5.12297    5.12297    9.61147  125.01138  125.01138   92.67638
LATT -1
SFAC Li O  S  Fe 
Li     1  0.0089890000000  0.6726390000000  0.6132870000000 1.0  -0.01
Li     1 -0.3273610000000  0.0089890000000  0.6132870000000 1.0  -0.01
Li     1  0.0079770000000  0.3384060000000  0.2576430000000 1.0   0.01
Li     1  0.3384060000000  0.0079770000000  0.2576430000000 1.0   0.01
Li     1 -0.2650860000000  0.3812350000000 -0.0344350000000 1.0  -0.04
Li     1  0.3812350000000 -0.2650860000000 -0.0344350000000 1.0  -0.04
O      2 -0.4611670000000 -0.0257710000000 -0.0937560000000 1.0   0.18
O      2 -0.0257710000000 -0.4611670000000 -0.0937560000000 1.0   0.18
O      2  0.5294420000000 -0.4705580000000 -0.5308340000000 1.0   0.09
S      3 -0.0327490000000 -0.0327490000000 -0.6352990000000 1.0   0.08
Fe     4 -0.3944740000000 -0.3944740000000 -0.2698740000000 1.0   3.56
END
