TITL LFSO-Li6FeS3O-200910-000051-3efa7f 0.0311 237.147920 -3.41081313E+003 -3.27730 3.56575 11 (Cm) n - 1
REM
REM Run started: Thu, 10 Sep 2020 01:45:42 +0100 in /lustre/scratch/uccabz1/launch_tmp/launcher_2020-09-09-23-00-50-093632
REM CASTEP 20.1 from code version af48c487+ pr-geom-scf-spinfix Tue Jun 2 15:39:59 2020 +0100
REM Functional Perdew Burke Ernzerhof Relativity Koelling-Harmon Dispersion off
REM Cut-off 340.0000 eV Grid scale 1.7500 Gmax 16.5316 1/A FBSC none
REM MP grid 3 3 2 Offset 0.000 0.000 0.000 No. kpts 6 Spacing 0.07
REM Total runtime: 6330.54 s
REM Overall efficiency: 83.7778 %
REM
REM
REM
REM compiler GCC version 4.9.2
REM options -cpp -iprefix /lustre/shared/ucl/apps/gcc/4.9.2/bin/../lib/gcc/x86_64-unknown-linux-gnu/4.9.2/ -mtune=corei7 -march=x86-64 -g -Og
REM COMMAND_LINE
REM seed 18263255 1903646050 -1643968226 25481782 1623396429 -1546174250 -94755803 -235054891 788071767 -1009215237 -676341016 394249205
REM
REM S 3|1.8|5|6|7|30:31:32(qc=5)
REM O 2|1.5|12|13|15|20:21(qc=5)
REM Li 1|1.3|8|9|10|10U:20(qc=5)
REM Fe 3|2.2|2.0|1.0|8|9|10|40:41:32(qc=5)
REM 
CELL 1.54180    5.74706    5.74706    7.43094   91.00032   91.00032   75.12171
LATT -1
SFAC Li O  S  Fe 
Li     1  0.1054960000000 -0.3947410000000 -0.2650450000000 1.0   0.03
Li     1  0.6052590000000  0.1054960000000 -0.2650450000000 1.0   0.03
Li     1 -0.2289310000000  0.3630970000000  0.3828910000000 1.0   0.02
Li     1 -0.6369030000000 -0.2289310000000  0.3828910000000 1.0   0.02
Li     1  0.3879910000000 -0.2056840000000  0.0322250000000 1.0   0.03
Li     1 -0.2056840000000  0.3879910000000  0.0322250000000 1.0   0.03
O      2 -0.4685350000000 -0.4685350000000  0.1932070000000 1.0  -0.13
S      3 -0.1670860000000  0.3738670000000 -0.3013140000000 1.0  -0.01
S      3  0.3738670000000 -0.1670860000000 -0.3013140000000 1.0  -0.01
S      3  0.0947400000000  0.0947400000000  0.1912800000000 1.0  -0.10
Fe     4  0.3310270000000  0.3310270000000  0.1751870000000 1.0  -3.17
END
