TITL LFSO-Li2Fe2S2O-200913-113323-b14fae -0.0076 355.372968 -9.52055962E+003 -11.9434 12.7225 21 (P32) n - 1
REM
REM Run started: Mon, 14 Sep 2020 03:24:28 +0100 in /lustre/scratch/uccabz1/launch_tmp/launcher_2020-09-13-10-33-20-833967
REM CASTEP 20.1 from code version af48c487+ pr-geom-scf-spinfix Tue Jun 2 15:39:59 2020 +0100
REM Functional Perdew Burke Ernzerhof Relativity Koelling-Harmon Dispersion off
REM Cut-off 340.0000 eV Grid scale 1.7500 Gmax 16.5316 1/A FBSC none
REM MP grid 3 3 3 Offset 0.000 0.000 0.000 No. kpts 8 Spacing 0.07
REM Total runtime: 63714.5 s
REM Overall efficiency: 90 %
REM
REM
REM
REM compiler GCC version 4.9.2
REM options -cpp -iprefix /lustre/shared/ucl/apps/gcc/4.9.2/bin/../lib/gcc/x86_64-unknown-linux-gnu/4.9.2/ -mtune=corei7 -march=x86-64 -g -Og
REM COMMAND_LINE
REM seed 530436619 -209714411 -872207104 -830387041 -990340122 126278366 -519570199 193690311 -126113324 -852137702 -132872563 -184846320
REM
REM S 3|1.8|5|6|7|30:31:32(qc=5)
REM O 2|1.5|12|13|15|20:21(qc=5)
REM Li 1|1.3|8|9|10|10U:20(qc=5)
REM Fe 3|2.2|2.0|1.0|8|9|10|40:41:32(qc=5)
REM 
CELL 1.54180    7.73627    7.73627    6.85631   90.00000   90.00000  120.00000
LATT -1
SFAC Li O  S  Fe 
Li     1 -0.0714460000000 -0.5218130000000 -0.3448710000000 1.0   0.03
Li     1 -0.4503670000000  0.0714460000000 -0.0115370000000 1.0   0.03
Li     1  0.5218130000000  0.4503670000000  0.3217960000000 1.0   0.03
Li     1 -0.2043390000000  0.3587810000000  0.2367760000000 1.0  -0.04
Li     1 -0.4368790000000  0.2043390000000 -0.4298900000000 1.0  -0.04
Li     1 -0.3587810000000  0.4368790000000 -0.0965570000000 1.0  -0.04
O      2 -0.2751240000000  0.2557380000000 -0.2054990000000 1.0  -0.21
O      2 -0.4691380000000  0.2751240000000  0.1278340000000 1.0  -0.21
O      2 -0.2557380000000  0.4691380000000  0.4611680000000 1.0  -0.21
S      3 -0.3066210000000 -0.1899100000000 -0.0599870000000 1.0  -0.08
S      3  0.1167110000000  0.3066210000000  0.2733460000000 1.0  -0.08
S      3  0.1899100000000 -0.1167110000000 -0.3933210000000 1.0  -0.08
S      3  0.0702930000000 -0.1849430000000  0.1217890000000 1.0  -0.06
S      3 -0.2552370000000 -0.0702930000000  0.4551220000000 1.0  -0.06
S      3  0.1849430000000  0.2552370000000 -0.2115440000000 1.0  -0.06
Fe     4  0.0160020000000 -0.0753340000000 -0.1600070000000 1.0  -0.78
Fe     4 -0.0913360000000 -0.0160020000000  0.1733260000000 1.0  -0.78
Fe     4  0.0753340000000  0.0913360000000 -0.4933400000000 1.0  -0.78
Fe     4  0.2580890000000  0.1568180000000  0.1054590000000 1.0  -2.85
Fe     4 -0.1012700000000 -0.2580890000000  0.4387920000000 1.0  -2.85
Fe     4 -0.1568180000000  0.1012700000000 -0.2278740000000 1.0  -2.85
END
