TITL LFSO-Li4FeSO2-200910-075312-738733 -0.0201 248.675781 -5.68699370E+003 7.99990 8.31620 16 (Pc) n - 1
REM
REM Run started: Thu, 10 Sep 2020 11:08:41 +0100 in /lustre/scratch/uccabz1/launch_tmp/launcher_2020-09-10-06-53-09-889131
REM CASTEP 20.1 from code version af48c487+ pr-geom-scf-spinfix Tue Jun 2 15:39:59 2020 +0100
REM Functional Perdew Burke Ernzerhof Relativity Koelling-Harmon Dispersion off
REM Cut-off 340.0000 eV Grid scale 1.7500 Gmax 16.5316 1/A FBSC none
REM MP grid 4 4 2 Offset 0.000 0.000 0.000 No. kpts 8 Spacing 0.07
REM Total runtime: 11786.9 s
REM Overall efficiency: 95.75 %
REM
REM
REM
REM compiler GCC version 4.9.2
REM options -cpp -iprefix /lustre/shared/ucl/apps/gcc/4.9.2/bin/../lib/gcc/x86_64-unknown-linux-gnu/4.9.2/ -mtune=corei7 -march=x86-64 -g -Og
REM COMMAND_LINE
REM seed 1430943360 1087305655 -51370700 -1772647744 1051755308 -962811332 1778188510 64854025 -1069288191 -1454794909 -1131422785 1389378549
REM
REM S 3|1.8|5|6|7|30:31:32(qc=5)
REM O 2|1.5|12|13|15|20:21(qc=5)
REM Li 1|1.3|8|9|10|10U:20(qc=5)
REM Fe 3|2.2|2.0|1.0|8|9|10|40:41:32(qc=5)
REM 
CELL 1.54180    4.75869    4.67107   11.40510   90.00000   90.00000   78.78736
LATT -1
SFAC Li O  S  Fe 
Li     1  0.1715760000000  0.3708470000000 -0.0246110000000 1.0   0.01
Li     1  0.1715760000000 -0.1291530000000  0.0246110000000 1.0   0.01
Li     1 -0.3399440000000 -0.1064300000000 -0.0395220000000 1.0  -0.05
Li     1 -0.3399440000000  0.3935700000000  0.0395220000000 1.0  -0.05
Li     1 -0.1877740000000  0.1069240000000 -0.4284860000000 1.0   0.02
Li     1 -0.1877740000000 -0.3930760000000  0.4284860000000 1.0   0.02
Li     1  0.1379000000000 -0.6689990000000  0.1957160000000 1.0  -0.06
Li     1  0.1379000000000 -0.1689990000000 -0.1957160000000 1.0  -0.06
O      2  0.4185560000000 -0.3793110000000 -0.0900750000000 1.0   0.21
O      2  0.4185560000000  0.1206890000000  0.0900750000000 1.0   0.21
O      2 -0.0785090000000 -0.3688370000000  0.0949420000000 1.0   0.21
O      2 -0.0785090000000  0.1311630000000 -0.0949420000000 1.0   0.21
S      3 -0.1430720000000  0.1000200000000  0.3579380000000 1.0   0.13
S      3 -0.1430720000000 -0.3999800000000 -0.3579380000000 1.0   0.13
Fe     4 -0.2906480000000 -0.0747730000000  0.1899710000000 1.0   3.52
Fe     4 -0.2906480000000  0.4252270000000 -0.1899710000000 1.0   3.52
END
