TITL LFSO-Li2FeSO-200912-005825-046841 -0.2250 256.883147 -6.01356932E+003 -10.0108 10.5793 15 (Pm) n - 1
REM
REM Run started: Sat, 12 Sep 2020 13:32:26 +0100 in /lustre/scratch/uccabz1/launch_tmp/launcher_2020-09-12-11-30-15-119711
REM CASTEP 20.1 from code version af48c487+ pr-geom-scf-spinfix Tue Jun 2 15:39:59 2020 +0100
REM Functional Perdew Burke Ernzerhof Relativity Koelling-Harmon Dispersion off
REM Cut-off 340.0000 eV Grid scale 1.7500 Gmax 16.5316 1/A FBSC none
REM MP grid 7 4 2 Offset 0.000 0.000 0.000 No. kpts 14 Spacing 0.07
REM Total runtime: 41289.3 s
REM Overall efficiency: 98.2 %
REM
REM
REM
REM compiler GCC version 4.9.2
REM options -cpp -iprefix /lustre/shared/ucl/apps/gcc/4.9.2/bin/../lib/gcc/x86_64-unknown-linux-gnu/4.9.2/ -mtune=corei7 -march=x86-64 -g -Og
REM COMMAND_LINE
REM seed 1692613080 -1948299333 259943019 653486549 -2015052960 1188431781 461826327 -1084089863 -1202012396 477928902 1765183975 -229595890
REM
REM S 3|1.8|5|6|7|30:31:32(qc=5)
REM O 2|1.5|12|13|15|20:21(qc=5)
REM Li 1|1.3|8|9|10|10U:20(qc=5)
REM Fe 3|2.2|2.0|1.0|8|9|10|40:41:32(qc=5)
REM 
CELL 1.54180    6.97076   13.36535    9.15802   90.00000   90.00000  162.47788
LATT -1
SFAC Li O  S  Fe 
Li     1 -0.0507360000000  0.3180690000000 -0.1628580000000 1.0   0.01
Li     1 -0.0507360000000  0.3180690000000  0.1628580000000 1.0   0.01
Li     1  0.1018010000000 -0.1249410000000 -0.3510460000000 1.0   0.01
Li     1  0.1018010000000 -0.1249410000000  0.3510460000000 1.0   0.01
Li     1 -0.1573380000000  0.0808780000000 -0.3396590000000 1.0   0.04
Li     1 -0.1573380000000  0.0808780000000  0.3396590000000 1.0   0.04
O      2  0.4415020000000 -0.0372470000000  0.1916080000000 1.0  -0.21
O      2  0.4415020000000 -0.0372470000000 -0.1916080000000 1.0  -0.21
O      2 -0.3929360000000  0.1741680000000  0.5000000000000 1.0  -0.27
S      3 -0.5219300000000  0.2437110000000 -0.2353840000000 1.0  -0.03
S      3 -0.5219300000000  0.2437110000000  0.2353840000000 1.0  -0.03
S      3 -0.2452030000000 -0.4498410000000  0.5000000000000 1.0  -0.06
Fe     4 -0.0379890000000 -0.3807710000000  0.1328840000000 1.0  -3.27
Fe     4 -0.0379890000000 -0.3807710000000 -0.1328840000000 1.0  -3.27
Fe     4 -0.3503260000000 -0.6731240000000  0.5000000000000 1.0  -2.78
END
