TITL LFSO-Li2Fe4SO4-200911-234156-97b835 -0.0009 251.741215 -1.18176557E+004 -21.8158 26.8084 22 (R3) n - 1
REM
REM Run started: Sat, 12 Sep 2020 15:54:43 +0100 in /lustre/scratch/uccabz1/launch_tmp/launcher_2020-09-11-22-41-53-512709
REM CASTEP 20.1 from code version af48c487+ pr-geom-scf-spinfix Tue Jun 2 15:39:59 2020 +0100
REM Functional Perdew Burke Ernzerhof Relativity Koelling-Harmon Dispersion off
REM Cut-off 340.0000 eV Grid scale 1.7500 Gmax 16.5316 1/A FBSC none
REM MP grid 3 3 3 Offset 0.000 0.000 0.000 No. kpts 6 Spacing 0.07
REM Total runtime: 59039 s
REM Overall efficiency: 98.4286 %
REM
REM
REM
REM compiler GCC version 4.9.2
REM options -cpp -iprefix /lustre/shared/ucl/apps/gcc/4.9.2/bin/../lib/gcc/x86_64-unknown-linux-gnu/4.9.2/ -mtune=corei7 -march=x86-64 -g -Og
REM COMMAND_LINE
REM seed -135809813 1020782540 -1302107800 1200856583 876667870 19993775 -840027503 -82737614 -743258181 371796466 228812951 -1288312918
REM
REM S 3|1.8|5|6|7|30:31:32(qc=5)
REM O 2|1.5|12|13|15|20:21(qc=5)
REM Li 1|1.3|8|9|10|10U:20(qc=5)
REM Fe 3|2.2|2.0|1.0|8|9|10|40:41:32(qc=5)
REM 
CELL 1.54180    8.24819    8.24819    8.24819   44.61556   44.61556   44.61556
LATT -1
SFAC Li O  S  Fe 
Li     1  0.3056850000000 -0.1829220000000  0.0340690000000 1.0  -0.03
Li     1  0.0340690000000  0.3056850000000 -0.1829220000000 1.0  -0.03
Li     1 -0.1829220000000  0.0340690000000  0.3056850000000 1.0  -0.03
Li     1 -0.2615200000000 -0.2615200000000 -0.2615200000000 1.0   0.06
O      2  0.4892440000000 -0.0659940000000 -0.0492640000000 1.0  -0.39
O      2 -0.0492640000000  0.4892440000000 -0.0659940000000 1.0  -0.39
O      2 -0.0659940000000 -0.0492640000000  0.4892440000000 1.0  -0.39
O      2 -0.5174960000000 -0.0295850000000 -0.4487500000000 1.0  -0.11
O      2 -0.4487500000000 -0.5174960000000 -0.0295850000000 1.0  -0.11
O      2 -0.0295850000000 -0.4487500000000 -0.5174960000000 1.0  -0.11
O      2  0.0007740000000  0.0007740000000  0.0007740000000 1.0  -0.26
O      2 -0.1111440000000 -0.1111440000000 -0.1111440000000 1.0  -0.22
S      3  0.2366490000000  0.2366490000000  0.2366490000000 1.0  -0.11
S      3  0.4396580000000  0.4396580000000  0.4396580000000 1.0  -0.06
Fe     4 -0.0220360000000 -0.3351680000000  0.1810570000000 1.0  -2.95
Fe     4  0.1810570000000 -0.0220360000000 -0.3351680000000 1.0  -2.95
Fe     4 -0.3351680000000  0.1810570000000 -0.0220360000000 1.0  -2.95
Fe     4 -0.3085650000000 -0.3478620000000  0.1548680000000 1.0  -3.33
Fe     4  0.1548680000000 -0.3085650000000 -0.3478620000000 1.0  -3.33
Fe     4 -0.3478620000000  0.1548680000000 -0.3085650000000 1.0  -3.33
Fe     4  0.3370940000000  0.3370940000000  0.3370940000000 1.0   2.33
Fe     4 -0.3905580000000 -0.3905580000000 -0.3905580000000 1.0  -3.10
END
