TITL LFSO-Li5FeS3O-200910-093056-ae5ec9 0.2584 1538.838629 -6.42281838E+003 6.00624 6.93568 20 (Cm) n - 1
REM
REM Run started: Fri, 11 Sep 2020 20:25:00 +0100 in /lustre/scratch/uccabz1/launch_tmp/launcher_2020-09-11-13-40-56-505823
REM CASTEP 20.1 from code version af48c487+ pr-geom-scf-spinfix Tue Jun 2 15:39:59 2020 +0100
REM Functional Perdew Burke Ernzerhof Relativity Koelling-Harmon Dispersion off
REM Cut-off 340.0000 eV Grid scale 1.7500 Gmax 16.5316 1/A FBSC none
REM MP grid 3 2 3 Offset 0.000 0.000 0.000 No. kpts 9 Spacing 0.07
REM Total runtime: 131859 s
REM Overall efficiency: 98.8182 %
REM
REM
REM
REM compiler GCC version 4.9.2
REM options -cpp -iprefix /lustre/shared/ucl/apps/gcc/4.9.2/bin/../lib/gcc/x86_64-unknown-linux-gnu/4.9.2/ -mtune=corei7 -march=x86-64 -g -Og
REM COMMAND_LINE
REM seed 565565242 -499007933 1247780066 1785477405 -1785957461 -635844817 1193565137 -663816559 626149052 941490253 1080822175 -1727226502
REM
REM S 3|1.8|5|6|7|30:31:32(qc=5)
REM O 2|1.5|12|13|15|20:21(qc=5)
REM Li 1|1.3|8|9|10|10U:20(qc=5)
REM Fe 3|2.2|2.0|1.0|8|9|10|40:41:32(qc=5)
REM 
CELL 1.54180    6.84614   33.97621   18.23189  158.71384   89.37351   90.00000
LATT -1
SFAC Li O  S  Fe 
Li     1  0.1864550000000 -0.5598190000000  0.3436990000000 1.0   0.02
Li     1  0.1864550000000 -0.0964820000000  0.3436990000000 1.0   0.02
Li     1 -0.0373780000000  0.1693380000000 -0.1602140000000 1.0   0.02
Li     1 -0.0373780000000 -0.3295520000000 -0.1602140000000 1.0   0.02
Li     1 -0.4072460000000 -0.0128820000000  0.5118000000000 1.0  -0.02
Li     1 -0.4072460000000 -0.4753180000000  0.5118000000000 1.0  -0.02
Li     1  0.4304660000000  0.3755470000000  0.3359580000000 1.0  -0.00
Li     1  0.4304660000000 -0.0395890000000  0.3359580000000 1.0  -0.00
Li     1 -0.0800670000000  0.3094850000000  0.2085870000000 1.0   0.00
Li     1 -0.0800670000000 -0.1008980000000  0.2085870000000 1.0   0.00
O      2 -0.2834440000000 -0.3642870000000 -0.2520860000000 1.0   0.26
O      2 -0.2834440000000  0.1122010000000 -0.2520860000000 1.0   0.26
S      3 -0.3200410000000  0.3417930000000  0.1864340000000 1.0   0.01
S      3 -0.3200410000000 -0.1553590000000  0.1864340000000 1.0   0.01
S      3  0.2212120000000 -0.1821130000000  0.0784560000000 1.0   0.01
S      3  0.2212120000000  0.2605690000000  0.0784560000000 1.0   0.01
S      3  0.2965430000000  0.0790650000000 -0.3643620000000 1.0   0.01
S      3  0.2965430000000 -0.4434270000000 -0.3643620000000 1.0   0.01
Fe     4  0.4983450000000 -0.2914740000000 -0.0998790000000 1.0   2.71
Fe     4  0.4983450000000  0.1915950000000 -0.0998790000000 1.0   2.71
END
