TITL LFSO-Li2Fe4S2O3-200912-073231-6be398 5.4541 299.256030 -1.15457512E+004 14.3820 16.0512 22 (C2) n - 1
REM
REM Run started: Mon, 14 Sep 2020 17:22:19 +0100 in /lustre/scratch/uccabz1/launch_tmp/launcher_2020-09-14-12-45-46-241738
REM CASTEP 20.1 from code version af48c487+ pr-geom-scf-spinfix Tue Jun 2 15:39:59 2020 +0100
REM Functional Perdew Burke Ernzerhof Relativity Koelling-Harmon Dispersion off
REM Cut-off 340.0000 eV Grid scale 1.7500 Gmax 16.5316 1/A FBSC none
REM MP grid 3 3 2 Offset 0.000 0.000 0.000 No. kpts 9 Spacing 0.07
REM Total runtime: 203868 s
REM Overall efficiency: 86.7 %
REM
REM
REM
REM compiler GCC version 4.9.2
REM options -cpp -iprefix /lustre/shared/ucl/apps/gcc/4.9.2/bin/../lib/gcc/x86_64-unknown-linux-gnu/4.9.2/ -mtune=corei7 -march=x86-64 -g -Og
REM COMMAND_LINE
REM seed 1515100998 1387884420 173048295 758191736 -564999218 2086747669 1333799193 -129097380 1022439530 -254574802 -422478159 429240736
REM
REM S 3|1.8|5|6|7|30:31:32(qc=5)
REM O 2|1.5|12|13|15|20:21(qc=5)
REM Li 1|1.3|8|9|10|10U:20(qc=5)
REM Fe 3|2.2|2.0|1.0|8|9|10|40:41:32(qc=5)
REM 
CELL 1.54180    6.30235    6.87045    9.04799   60.52738   69.61825   62.69955
LATT -1
SFAC Li O  S  Fe 
Li     1 -0.4880310000000  0.0221050000000  0.4945170000000 1.0   0.02
Li     1  0.0285910000000 -0.0221050000000 -0.4945170000000 1.0   0.02
Li     1  0.2285960000000  0.3137500000000  0.0376110000000 1.0  -0.08
Li     1 -0.4200430000000 -0.3137500000000 -0.0376110000000 1.0  -0.08
O      2  0.3682220000000 -0.1950790000000 -0.4599850000000 1.0   0.11
O      2 -0.2868420000000  0.1950790000000  0.4599850000000 1.0   0.11
O      2 -0.1384900000000  0.3675780000000  0.0855660000000 1.0   0.23
O      2  0.3146540000000 -0.3675780000000 -0.0855660000000 1.0   0.23
O      2  0.0355740000000  0.1377370000000 -0.2443900000000 1.0   0.07
O      2 -0.0710790000000 -0.1377370000000  0.2443900000000 1.0   0.07
S      3 -0.5460520000000 -0.2586070000000  0.3228630000000 1.0  -0.05
S      3  0.5182040000000  0.2586070000000 -0.3228630000000 1.0  -0.05
S      3 -0.1925570000000  0.6265240000000 -0.2952710000000 1.0   0.08
S      3  0.1386950000000 -0.6265240000000  0.2952710000000 1.0   0.08
Fe     4 -0.5214920000000  0.5581600000000 -0.2692590000000 1.0   2.53
Fe     4 -0.2325920000000 -0.5581600000000  0.2692590000000 1.0   2.53
Fe     4 -0.0746960000000  0.2476610000000 -0.0655270000000 1.0   2.43
Fe     4  0.1074390000000 -0.2476610000000  0.0655270000000 1.0   2.43
Fe     4  0.1759760000000 -0.3914130000000  0.3615950000000 1.0  -0.75
Fe     4  0.1461580000000  0.3914130000000 -0.3615950000000 1.0  -0.75
Fe     4 -0.2651210000000  0.0919020000000 -0.1347190000000 1.0   1.93
Fe     4 -0.3079380000000 -0.0919020000000  0.1347190000000 1.0   1.93
END
