TITL LFSO-Li4Fe2S2O3-200911-115954-882a9d -0.0362 183.606921 -4.44390334E+003 3.59330 3.96015 11 (P2) n - 1
REM
REM Run started: Fri, 11 Sep 2020 14:45:37 +0100 in /lustre/scratch/uccabz1/launch_tmp/launcher_2020-09-11-10-59-52-925650
REM CASTEP 20.1 from code version af48c487+ pr-geom-scf-spinfix Tue Jun 2 15:39:59 2020 +0100
REM Functional Perdew Burke Ernzerhof Relativity Koelling-Harmon Dispersion off
REM Cut-off 340.0000 eV Grid scale 1.7500 Gmax 16.5316 1/A FBSC none
REM MP grid 5 3 2 Offset 0.000 0.000 0.000 No. kpts 10 Spacing 0.07
REM Total runtime: 10902.1 s
REM Overall efficiency: 90.6154 %
REM
REM
REM
REM compiler GCC version 4.9.2
REM options -cpp -iprefix /lustre/shared/ucl/apps/gcc/4.9.2/bin/../lib/gcc/x86_64-unknown-linux-gnu/4.9.2/ -mtune=corei7 -march=x86-64 -g -Og
REM COMMAND_LINE
REM seed 1241355017 -1311148751 -270068267 -242366747 621910592 1967424346 -1988328440 708019295 -684412130 1999279534 1082379723 20794531
REM
REM S 3|1.8|5|6|7|30:31:32(qc=5)
REM O 2|1.5|12|13|15|20:21(qc=5)
REM Li 1|1.3|8|9|10|10U:20(qc=5)
REM Fe 3|2.2|2.0|1.0|8|9|10|40:41:32(qc=5)
REM 
CELL 1.54180    3.00988    6.80342    8.97045   90.00000   88.25493   90.00000
LATT -1
SFAC Li O  S  Fe 
Li     1  0.2042220000000  0.1806340000000  0.3117230000000 1.0   0.00
Li     1 -0.2042220000000  0.1806340000000 -0.3117230000000 1.0   0.00
Li     1  0.2083980000000 -0.2067910000000  0.3331790000000 1.0  -0.00
Li     1 -0.2083980000000 -0.2067910000000 -0.3331790000000 1.0  -0.00
O      2  0.2838220000000 -0.0180990000000 -0.2832910000000 1.0   0.02
O      2 -0.2838220000000 -0.0180990000000  0.2832910000000 1.0   0.02
O      2 -0.5000000000000  0.3576210000000 -0.5000000000000 1.0  -0.00
S      3  0.3262420000000 -0.5110560000000 -0.3402230000000 1.0   0.01
S      3 -0.3262420000000 -0.5110560000000  0.3402230000000 1.0   0.01
Fe     4  0.2583460000000 -0.0273350000000 -0.0846270000000 1.0   1.77
Fe     4 -0.2583460000000 -0.0273350000000  0.0846270000000 1.0   1.77
END
