TITL LFSO-Li2Fe4S3O2-200912-050558-ce0e20 -0.0450 334.046468 -1.12817226E+004 -24.3252 24.7767 22 (P3) n - 1
REM
REM Run started: Sun, 13 Sep 2020 01:15:01 +0100 in /lustre/scratch/uccabz1/launch_tmp/launcher_2020-09-12-04-05-56-272957
REM CASTEP 20.1 from code version af48c487+ pr-geom-scf-spinfix Tue Jun 2 15:39:59 2020 +0100
REM Functional Perdew Burke Ernzerhof Relativity Koelling-Harmon Dispersion off
REM Cut-off 340.0000 eV Grid scale 1.7500 Gmax 16.5316 1/A FBSC none
REM MP grid 4 2 2 Offset 0.000 0.000 0.000 No. kpts 8 Spacing 0.07
REM Total runtime: 72792.6 s
REM Overall efficiency: 98.1111 %
REM
REM
REM
REM compiler GCC version 4.9.2
REM options -cpp -iprefix /lustre/shared/ucl/apps/gcc/4.9.2/bin/../lib/gcc/x86_64-unknown-linux-gnu/4.9.2/ -mtune=corei7 -march=x86-64 -g -Og
REM COMMAND_LINE
REM seed -747826629 1124180 1994195812 1365488773 906803213 439980471 -789140248 1301803231 -102312635 59242692 -40581494 -421598326
REM
REM S 3|1.8|5|6|7|30:31:32(qc=5)
REM O 2|1.5|12|13|15|20:21(qc=5)
REM Li 1|1.3|8|9|10|10U:20(qc=5)
REM Fe 3|2.2|2.0|1.0|8|9|10|40:41:32(qc=5)
REM 
CELL 1.54180    3.88403    9.96545    9.96545  120.00000   90.00000   90.00000
LATT -1
SFAC Li O  S  Fe 
Li     1 -0.2410860000000  0.3340910000000  0.3126050000000 1.0  -0.01
Li     1 -0.2410860000000 -0.3126050000000  0.0214860000000 1.0  -0.01
Li     1 -0.2410860000000 -0.0214860000000 -0.3340910000000 1.0  -0.01
Li     1 -0.2370690000000  0.0000000000000 -0.0000000000000 1.0  -0.03
O      2 -0.1509520000000  0.2732030000000  0.4768080000000 1.0  -0.20
O      2 -0.1509520000000 -0.4768080000000 -0.2036050000000 1.0  -0.20
O      2 -0.1509520000000  0.2036050000000 -0.2732030000000 1.0  -0.20
O      2 -0.2055910000000 -0.3333330000000  0.3333330000000 1.0  -0.52
S      3  0.2530150000000  0.5033760000000  0.4434390000000 1.0  -0.21
S      3  0.2530150000000 -0.4434390000000  0.0599370000000 1.0  -0.21
S      3  0.2530150000000 -0.0599370000000 -0.5033760000000 1.0  -0.21
S      3  0.6170340000000 -0.0206740000000  0.2154740000000 1.0  -0.15
S      3  0.6170340000000 -0.2154740000000 -0.2361470000000 1.0  -0.15
S      3  0.6170340000000  0.2361470000000  0.0206740000000 1.0  -0.15
Fe     4  0.1261270000000  0.0712130000000  0.3562010000000 1.0  -2.86
Fe     4  0.1261270000000 -0.3562010000000 -0.2849880000000 1.0  -2.86
Fe     4  0.1261270000000  0.2849880000000 -0.0712130000000 1.0  -2.86
Fe     4 -0.4019170000000  0.3868960000000 -0.1353520000000 1.0  -2.38
Fe     4 -0.4019170000000  0.1353520000000 -0.4777520000000 1.0  -2.38
Fe     4 -0.4019170000000  0.4777520000000 -0.3868960000000 1.0  -2.38
Fe     4  0.3346400000000 -0.3333330000000  0.3333330000000 1.0  -3.27
Fe     4  0.1414150000000  0.3333330000000 -0.3333330000000 1.0  -3.10
END
