TITL LFSO-Li2Fe3SO3-200912-140414-ae546b -0.0315 225.562476 -9.21691900E+003 17.1761 17.6573 18 (P-1) n - 1
REM
REM Run started: Sun, 13 Sep 2020 07:33:05 +0100 in /lustre/scratch/uccabz1/launch_tmp/launcher_2020-09-12-13-04-13-138229
REM CASTEP 20.1 from code version af48c487+ pr-geom-scf-spinfix Tue Jun 2 15:39:59 2020 +0100
REM Functional Perdew Burke Ernzerhof Relativity Koelling-Harmon Dispersion off
REM Cut-off 340.0000 eV Grid scale 1.7500 Gmax 16.5316 1/A FBSC none
REM MP grid 4 4 2 Offset 0.000 0.000 0.000 No. kpts 16 Spacing 0.07
REM Total runtime: 63985.2 s
REM Overall efficiency: 98.1111 %
REM
REM
REM
REM compiler GCC version 4.9.2
REM options -cpp -iprefix /lustre/shared/ucl/apps/gcc/4.9.2/bin/../lib/gcc/x86_64-unknown-linux-gnu/4.9.2/ -mtune=corei7 -march=x86-64 -g -Og
REM COMMAND_LINE
REM seed -275997683 1809377294 1542451109 1226166429 1149297248 1612348552 -526015887 -1399606645 -473345156 -840604506 285884190 -1909727117
REM
REM S 3|1.8|5|6|7|30:31:32(qc=5)
REM O 2|1.5|12|13|15|20:21(qc=5)
REM Li 1|1.3|8|9|10|10U:20(qc=5)
REM Fe 3|2.2|2.0|1.0|8|9|10|40:41:32(qc=5)
REM 
CELL 1.54180    4.92270    5.11022   10.13127   90.19772   93.87178   62.55976
LATT -1
SFAC Li O  S  Fe 
Li     1 -0.1836330000000 -0.3260680000000 -0.1762900000000 1.0  -0.04
Li     1  0.1836330000000  0.3260680000000  0.1762900000000 1.0  -0.04
Li     1  0.2954230000000  0.0690670000000 -0.0996960000000 1.0  -0.04
Li     1 -0.2954230000000 -0.0690670000000  0.0996960000000 1.0  -0.04
O      2 -0.5495940000000 -0.2702590000000 -0.2720650000000 1.0   0.22
O      2  0.5495940000000  0.2702590000000  0.2720650000000 1.0   0.22
O      2 -0.4034950000000 -0.3126480000000 -0.0200580000000 1.0   0.10
O      2  0.4034950000000  0.3126480000000  0.0200580000000 1.0   0.10
O      2  0.1797740000000  0.3681900000000 -0.2302820000000 1.0   0.18
O      2 -0.1797740000000 -0.3681900000000  0.2302820000000 1.0   0.18
S      3 -0.2711570000000  0.0916160000000 -0.4162090000000 1.0   0.08
S      3  0.2711570000000 -0.0916160000000  0.4162090000000 1.0   0.08
Fe     4  0.5959180000000 -0.5182380000000  0.1357830000000 1.0   2.41
Fe     4 -0.5959180000000  0.5182380000000 -0.1357830000000 1.0   2.41
Fe     4  0.3140260000000  0.4147680000000  0.4361150000000 1.0   3.12
Fe     4 -0.3140260000000 -0.4147680000000 -0.4361150000000 1.0   3.12
Fe     4 -0.2055400000000 -0.1460310000000  0.3842400000000 1.0   2.55
Fe     4  0.2055400000000  0.1460310000000 -0.3842400000000 1.0   2.55
END
