TITL LFSO-Li2FeSO-200912-030723-0f6026 -0.0366 390.001551 -8.01867833E+003 -15.9090 16.1203 20 (Pm) n - 1
REM
REM Run started: Sun, 13 Sep 2020 06:31:20 +0100 in /lustre/scratch/uccabz1/launch_tmp/launcher_2020-09-12-02-07-21-521633
REM CASTEP 20.1 from code version af48c487+ pr-geom-scf-spinfix Tue Jun 2 15:39:59 2020 +0100
REM Functional Perdew Burke Ernzerhof Relativity Koelling-Harmon Dispersion off
REM Cut-off 340.0000 eV Grid scale 1.7500 Gmax 16.5316 1/A FBSC none
REM MP grid 4 3 1 Offset 0.000 0.000 0.000 No. kpts 6 Spacing 0.07
REM Total runtime: 101811 s
REM Overall efficiency: 98.5 %
REM
REM
REM
REM compiler GCC version 4.9.2
REM options -cpp -iprefix /lustre/shared/ucl/apps/gcc/4.9.2/bin/../lib/gcc/x86_64-unknown-linux-gnu/4.9.2/ -mtune=corei7 -march=x86-64 -g -Og
REM COMMAND_LINE
REM seed 105469234 800215821 871153610 1458669157 42533932 -2064005746 -1583250341 360760191 -1368151876 1335492396 1277129937 -1649036912
REM
REM S 3|1.8|5|6|7|30:31:32(qc=5)
REM O 2|1.5|12|13|15|20:21(qc=5)
REM Li 1|1.3|8|9|10|10U:20(qc=5)
REM Fe 3|2.2|2.0|1.0|8|9|10|40:41:32(qc=5)
REM 
CELL 1.54180    3.78181    6.62777   15.60928   90.00000   90.00000   85.42965
LATT -1
SFAC Li O  S  Fe 
Li     1  0.5784120000000  0.0176970000000 -0.4120680000000 1.0  -0.01
Li     1  0.5784120000000  0.0176970000000  0.4120680000000 1.0  -0.01
Li     1 -0.1222720000000 -0.1255650000000  0.1447560000000 1.0  -0.04
Li     1 -0.1222720000000 -0.1255650000000 -0.1447560000000 1.0  -0.04
Li     1  0.3222890000000 -0.1976950000000 -0.3008560000000 1.0  -0.05
Li     1  0.3222890000000 -0.1976950000000  0.3008560000000 1.0  -0.05
Li     1 -0.1198200000000  0.0928050000000 -0.2749120000000 1.0   0.11
Li     1 -0.1198200000000  0.0928050000000  0.2749120000000 1.0   0.11
O      2  0.0819440000000 -0.0017940000000  0.3842650000000 1.0  -0.29
O      2  0.0819440000000 -0.0017940000000 -0.3842650000000 1.0  -0.29
O      2 -0.4620270000000  0.3170010000000 -0.3932750000000 1.0  -0.31
O      2 -0.4620270000000  0.3170010000000  0.3932750000000 1.0  -0.31
S      3  0.3785910000000  0.0814730000000 -0.1868700000000 1.0  -0.15
S      3  0.3785910000000  0.0814730000000  0.1868700000000 1.0  -0.15
S      3 -0.1386250000000 -0.4099250000000 -0.2429180000000 1.0  -0.24
S      3 -0.1386250000000 -0.4099250000000  0.2429180000000 1.0  -0.24
Fe     4  0.0422990000000  0.2856800000000  0.4076860000000 1.0  -3.47
Fe     4  0.0422990000000  0.2856800000000 -0.4076860000000 1.0  -3.47
Fe     4  0.3751680000000 -0.6149840000000  0.2668100000000 1.0  -3.51
Fe     4  0.3751680000000 -0.6149840000000 -0.2668100000000 1.0  -3.51
END
