TITL LFSO-Li5FeS2O2-200920-221536-07a804 -0.0028 438.508555 -6.69213191E+003 -3.30415 4.48529 20 (R3) n - 1
REM
REM Run started: Tue, 22 Sep 2020 02:10:02 +0100 in /lustre/scratch/uccabz1/launch_tmp/launcher_2020-09-20-21-15-35-249852
REM CASTEP 20.1 from code version af48c487+ pr-geom-scf-spinfix Tue Jun 2 15:39:59 2020 +0100
REM Functional Perdew Burke Ernzerhof Relativity Koelling-Harmon Dispersion off
REM Cut-off 340.0000 eV Grid scale 1.7500 Gmax 16.5316 1/A FBSC none
REM MP grid 3 3 3 Offset 0.000 0.000 0.000 No. kpts 6 Spacing 0.07
REM Total runtime: 111718 s
REM Overall efficiency: 96.5833 %
REM
REM
REM
REM compiler GCC version 4.9.2
REM options -cpp -iprefix /lustre/shared/ucl/apps/gcc/4.9.2/bin/../lib/gcc/x86_64-unknown-linux-gnu/4.9.2/ -mtune=corei7 -march=x86-64 -g -Og
REM COMMAND_LINE
REM seed 89720106 1666100276 -47503156 2055941986 -820493583 274965787 -1347279688 -440059873 -1908193423 -826228196 373037393 -1804259307
REM
REM S 3|1.8|5|6|7|30:31:32(qc=5)
REM O 2|1.5|12|13|15|20:21(qc=5)
REM Li 1|1.3|8|9|10|10U:20(qc=5)
REM Fe 3|2.2|2.0|1.0|8|9|10|40:41:32(qc=5)
REM 
CELL 1.54180   10.73902   10.73902   10.73902   38.86866   38.86866   38.86866
LATT -1
SFAC Li O  S  Fe 
Li     1  0.4127310000000 -0.1325870000000 -0.4515820000000 1.0  -0.02
Li     1 -0.1325870000000 -0.4515820000000  0.4127310000000 1.0  -0.02
Li     1 -0.4515820000000  0.4127310000000 -0.1325870000000 1.0  -0.02
Li     1 -0.4295980000000  0.0015740000000  0.0897320000000 1.0   0.00
Li     1  0.0015740000000  0.0897320000000 -0.4295980000000 1.0   0.00
Li     1  0.0897320000000 -0.4295980000000  0.0015740000000 1.0   0.00
Li     1 -0.5973550000000  0.3008860000000 -0.2052990000000 1.0  -0.02
Li     1  0.3008860000000 -0.2052990000000 -0.5973550000000 1.0  -0.02
Li     1 -0.2052990000000 -0.5973550000000  0.3008860000000 1.0  -0.02
Li     1  0.2279790000000  0.2279790000000  0.2279790000000 1.0   0.00
O      2  0.3987150000000  0.3341550000000 -0.0607980000000 1.0  -0.01
O      2  0.3341550000000 -0.0607980000000  0.3987150000000 1.0  -0.01
O      2 -0.0607980000000  0.3987150000000  0.3341550000000 1.0  -0.01
O      2 -0.1185150000000 -0.1185150000000 -0.1185150000000 1.0   0.02
S      3  0.5784620000000 -0.2987700000000  0.0834810000000 1.0  -0.09
S      3 -0.2987700000000  0.0834810000000  0.5784620000000 1.0  -0.09
S      3  0.0834810000000  0.5784620000000 -0.2987700000000 1.0  -0.09
S      3 -0.3353000000000 -0.3353000000000 -0.3353000000000 1.0  -0.12
Fe     4 -0.1771030000000 -0.1771030000000 -0.1771030000000 1.0   0.54
Fe     4 -0.2594840000000 -0.2594840000000 -0.2594840000000 1.0  -3.34
END
