TITL LFSO-Li4Fe2S2O3-200911-114720-a7761e 0.0122 403.313826 -8.89669548E+003 12.1459 12.9276 22 (Cc) n - 1
REM
REM Run started: Sat, 12 Sep 2020 01:25:36 +0100 in /lustre/scratch/uccabz1/launch_tmp/launcher_2020-09-11-13-10-03-619427
REM CASTEP 20.1 from code version af48c487+ pr-geom-scf-spinfix Tue Jun 2 15:39:59 2020 +0100
REM Functional Perdew Burke Ernzerhof Relativity Koelling-Harmon Dispersion off
REM Cut-off 340.0000 eV Grid scale 1.7500 Gmax 16.5316 1/A FBSC none
REM MP grid 4 3 2 Offset 0.000 0.000 0.000 No. kpts 12 Spacing 0.07
REM Total runtime: 45419.2 s
REM Overall efficiency: 98.4167 %
REM
REM
REM
REM compiler GCC version 4.9.2
REM options -cpp -iprefix /lustre/shared/ucl/apps/gcc/4.9.2/bin/../lib/gcc/x86_64-unknown-linux-gnu/4.9.2/ -mtune=corei7 -march=x86-64 -g -Og
REM COMMAND_LINE
REM seed 2010453036 1794426427 850729372 983939903 -718425526 -1890140886 1474995637 338958539 1253254622 684654223 -1933377482 905572603
REM
REM S 3|1.8|5|6|7|30:31:32(qc=5)
REM O 2|1.5|12|13|15|20:21(qc=5)
REM Li 1|1.3|8|9|10|10U:20(qc=5)
REM Fe 3|2.2|2.0|1.0|8|9|10|40:41:32(qc=5)
REM 
CELL 1.54180    6.74792    6.62933   16.13819   67.21982   40.46645   59.40656
LATT -1
SFAC Li O  S  Fe 
Li     1  0.0195140000000  0.2804930000000  0.3148560000000 1.0   0.01
Li     1  0.3000070000000 -0.2804930000000 -0.1851440000000 1.0   0.01
Li     1 -0.4990820000000 -0.5276350000000  0.1011930000000 1.0  -0.02
Li     1 -0.0267170000000  0.5276350000000 -0.3988070000000 1.0  -0.02
Li     1 -0.4305300000000 -0.0484280000000  0.0262070000000 1.0   0.01
Li     1  0.5210420000000  0.0484280000000  0.5262070000000 1.0   0.01
Li     1  0.0142260000000 -0.4435870000000  0.0732840000000 1.0   0.03
Li     1 -0.4293610000000  0.4435870000000 -0.4267160000000 1.0   0.03
O      2 -0.4247360000000 -0.4896640000000 -0.3197720000000 1.0   0.20
O      2  0.0856000000000  0.4896640000000  0.1802280000000 1.0   0.20
O      2 -0.0326310000000 -0.1544700000000 -0.0197620000000 1.0   0.20
O      2 -0.1871010000000  0.1544700000000  0.4802380000000 1.0   0.20
O      2  0.2982280000000 -0.2129150000000  0.1457400000000 1.0   0.31
O      2  0.0853130000000  0.2129150000000 -0.3542600000000 1.0   0.31
S      3  0.6283920000000  0.1521310000000  0.2170560000000 1.0   0.09
S      3 -0.2194770000000 -0.1521310000000 -0.2829440000000 1.0   0.09
S      3  0.2885960000000  0.2365500000000 -0.0601500000000 1.0   0.04
S      3  0.5251460000000 -0.2365500000000  0.4398500000000 1.0   0.04
Fe     4  0.0261720000000 -0.0245630000000 -0.4750590000000 1.0   2.73
Fe     4  0.0016090000000  0.0245630000000  0.0249410000000 1.0   2.73
Fe     4 -0.0635710000000 -0.2193970000000  0.2211810000000 1.0   2.47
Fe     4 -0.2829680000000  0.2193970000000 -0.2788190000000 1.0   2.47
END
