TITL LFSO-Li5FeS2O2-200920-230036-009bfe 0.6553 327.533849 -6.69439031E+003 -8.00000 8.37970 20 (R3) n - 1
REM
REM Run started: Mon, 21 Sep 2020 18:41:10 +0100 in /lustre/scratch/uccabz1/launch_tmp/launcher_2020-09-21-16-06-17-847679
REM CASTEP 20.1 from code version af48c487+ pr-geom-scf-spinfix Tue Jun 2 15:39:59 2020 +0100
REM Functional Perdew Burke Ernzerhof Relativity Koelling-Harmon Dispersion off
REM Cut-off 340.0000 eV Grid scale 1.7500 Gmax 16.5316 1/A FBSC none
REM MP grid 3 3 3 Offset 0.000 0.000 0.000 No. kpts 6 Spacing 0.07
REM Total runtime: 62285.2 s
REM Overall efficiency: 98 %
REM
REM
REM
REM compiler GCC version 4.9.2
REM options -cpp -iprefix /lustre/shared/ucl/apps/gcc/4.9.2/bin/../lib/gcc/x86_64-unknown-linux-gnu/4.9.2/ -mtune=corei7 -march=x86-64 -g -Og
REM COMMAND_LINE
REM seed 1854458541 -321793386 -988763275 -774285304 -837291556 1988531528 -1583190152 579911593 944120670 943516388 1792137854 1301884853
REM
REM S 3|1.8|5|6|7|30:31:32(qc=5)
REM O 2|1.5|12|13|15|20:21(qc=5)
REM Li 1|1.3|8|9|10|10U:20(qc=5)
REM Fe 3|2.2|2.0|1.0|8|9|10|40:41:32(qc=5)
REM 
CELL 1.54180    9.32101    9.32101    9.32101   41.96631   41.96631   41.96631
LATT -1
SFAC Li O  S  Fe 
Li     1  0.4276050000000 -0.2724640000000  0.2434960000000 1.0  -0.02
Li     1  0.2434960000000  0.4276050000000 -0.2724640000000 1.0  -0.02
Li     1 -0.2724640000000  0.2434960000000  0.4276050000000 1.0  -0.02
Li     1 -0.3743070000000  0.1090200000000  0.1292380000000 1.0   0.03
Li     1  0.1292380000000 -0.3743070000000  0.1090200000000 1.0   0.03
Li     1  0.1090200000000  0.1292380000000 -0.3743070000000 1.0   0.03
Li     1 -0.2199630000000  0.4071180000000 -0.0616300000000 1.0   0.04
Li     1 -0.0616300000000 -0.2199630000000  0.4071180000000 1.0   0.04
Li     1  0.4071180000000 -0.0616300000000 -0.2199630000000 1.0   0.04
Li     1 -0.3705660000000 -0.3705660000000 -0.3705660000000 1.0  -0.09
O      2 -0.5235320000000  0.0139420000000  0.4834420000000 1.0  -0.28
O      2  0.4834420000000 -0.5235320000000  0.0139420000000 1.0  -0.28
O      2  0.0139420000000  0.4834420000000 -0.5235320000000 1.0  -0.28
O      2 -0.5703710000000 -0.5703710000000 -0.5703710000000 1.0  -0.26
S      3 -0.0612240000000 -0.5079310000000  0.0954480000000 1.0  -0.15
S      3  0.0954480000000 -0.0612240000000 -0.5079310000000 1.0  -0.15
S      3 -0.5079310000000  0.0954480000000 -0.0612240000000 1.0  -0.15
S      3  0.0189510000000  0.0189510000000  0.0189510000000 1.0  -0.02
Fe     4  0.3552100000000  0.3552100000000  0.3552100000000 1.0  -3.90
Fe     4 -0.1631250000000 -0.1631250000000 -0.1631250000000 1.0  -2.54
END
