TITL LFSO-Li3FeSO2-200911-151004-740c74 -0.0770 216.619463 -5.28450599E+003 7.62286 7.75450 14 (P3) n - 1
REM
REM Run started: Fri, 11 Sep 2020 20:16:38 +0100 in /lustre/scratch/uccabz1/launch_tmp/launcher_2020-09-11-14-10-01-692065
REM CASTEP 20.1 from code version af48c487+ pr-geom-scf-spinfix Tue Jun 2 15:39:59 2020 +0100
REM Functional Perdew Burke Ernzerhof Relativity Koelling-Harmon Dispersion off
REM Cut-off 340.0000 eV Grid scale 1.7500 Gmax 16.5316 1/A FBSC none
REM MP grid 3 3 3 Offset 0.000 0.000 0.000 No. kpts 8 Spacing 0.07
REM Total runtime: 19480.8 s
REM Overall efficiency: 97.2 %
REM
REM
REM
REM compiler GCC version 4.9.2
REM options -cpp -iprefix /lustre/shared/ucl/apps/gcc/4.9.2/bin/../lib/gcc/x86_64-unknown-linux-gnu/4.9.2/ -mtune=corei7 -march=x86-64 -g -Og
REM COMMAND_LINE
REM seed 1818718787 816059845 1951807883 -1295229368 -570153466 2116129356 -1741925839 -1710891402 -328998420 2117079001 -361272926 -655091469
REM
REM S 3|1.8|5|6|7|30:31:32(qc=5)
REM O 2|1.5|12|13|15|20:21(qc=5)
REM Li 1|1.3|8|9|10|10U:20(qc=5)
REM Fe 3|2.2|2.0|1.0|8|9|10|40:41:32(qc=5)
REM 
CELL 1.54180    6.04980    6.04980    6.83416   90.00000   90.00000  120.00000
LATT -1
SFAC Li O  S  Fe 
Li     1  0.0395830000000 -0.4894930000000 -0.4565770000000 1.0  -0.01
Li     1 -0.5290760000000 -0.0395830000000 -0.4565770000000 1.0  -0.01
Li     1  0.4894930000000  0.5290760000000 -0.4565770000000 1.0  -0.01
Li     1 -0.3398160000000 -0.2430280000000 -0.0081590000000 1.0  -0.01
Li     1  0.0967880000000  0.3398160000000 -0.0081590000000 1.0  -0.01
Li     1  0.2430280000000 -0.0967880000000 -0.0081590000000 1.0  -0.01
O      2  0.1618630000000  0.3305900000000 -0.2862880000000 1.0   0.18
O      2  0.1687280000000 -0.1618630000000 -0.2862880000000 1.0   0.18
O      2 -0.3305900000000 -0.1687280000000 -0.2862880000000 1.0   0.18
O      2 -0.0000000000000  0.0000000000000  0.0720270000000 1.0   0.33
S      3  0.3333330000000 -0.3333330000000  0.2502440000000 1.0   0.35
S      3 -0.3333330000000  0.3333330000000  0.3391680000000 1.0   0.47
Fe     4 -0.0000000000000  0.0000000000000 -0.3016180000000 1.0   2.29
Fe     4 -0.0000000000000  0.0000000000000  0.3291280000000 1.0   3.74
END
