TITL LFSO-Li2Fe2S2O-200913-132242-272d60 0.0247 114.034194 -3.17259929E+003 7.45526 7.51165 7 (P2) n - 1
REM
REM Run started: Sun, 13 Sep 2020 14:12:20 +0100 in /lustre/scratch/uccabz1/launch_tmp/launcher_2020-09-13-12-22-40-543990
REM CASTEP 20.1 from code version af48c487+ pr-geom-scf-spinfix Tue Jun 2 15:39:59 2020 +0100
REM Functional Perdew Burke Ernzerhof Relativity Koelling-Harmon Dispersion off
REM Cut-off 340.0000 eV Grid scale 1.7500 Gmax 16.5316 1/A FBSC none
REM MP grid 4 3 3 Offset 0.000 0.000 0.000 No. kpts 10 Spacing 0.07
REM Total runtime: 3006.32 s
REM Overall efficiency: 79.4286 %
REM
REM
REM
REM compiler GCC version 4.9.2
REM options -cpp -iprefix /lustre/shared/ucl/apps/gcc/4.9.2/bin/../lib/gcc/x86_64-unknown-linux-gnu/4.9.2/ -mtune=corei7 -march=x86-64 -g -Og
REM COMMAND_LINE
REM seed -1311719806 -1696269400 1021832573 -777226467 -938413986 -1778390149 1582318338 -1606881187 288847596 488214375 -890835689 682542077
REM
REM S 3|1.8|5|6|7|30:31:32(qc=5)
REM O 2|1.5|12|13|15|20:21(qc=5)
REM Li 1|1.3|8|9|10|10U:20(qc=5)
REM Fe 3|2.2|2.0|1.0|8|9|10|40:41:32(qc=5)
REM 
CELL 1.54180    3.73151    5.34092    6.09587   69.82404   90.00000   90.00000
LATT -1
SFAC Li O  S  Fe 
Li     1  0.5292940000000  0.3242580000000  0.2472320000000 1.0  -0.02
Li     1  0.5292940000000 -0.3242580000000 -0.2472320000000 1.0  -0.02
O      2 -0.0542180000000  0.5000000000000  0.0000000000000 1.0   0.28
S      3 -0.4931970000000  0.1650400000000 -0.3090280000000 1.0   0.28
S      3 -0.4931970000000 -0.1650400000000  0.3090280000000 1.0   0.28
Fe     4  0.0095370000000 -0.2264200000000  0.1305750000000 1.0   3.33
Fe     4  0.0095370000000  0.2264200000000 -0.1305750000000 1.0   3.33
END
