TITL LFSO-Li3Fe3S4O2-200930-024800-c14abd 0.0761 217.793565 -5.27953246E+003 10.2296 10.4692 12 (Pmm2) n - 1
REM
REM Run started: Wed, 30 Sep 2020 06:25:52 +0100 in /lustre/scratch/uccabz1/launch_tmp/launcher_2020-09-30-01-47-58-458316
REM CASTEP 20.1 from code version af48c487+ pr-geom-scf-spinfix Tue Jun 2 15:39:59 2020 +0100
REM Functional Perdew Burke Ernzerhof Relativity Koelling-Harmon Dispersion off
REM Cut-off 340.0000 eV Grid scale 1.7500 Gmax 16.5316 1/A FBSC none
REM MP grid 4 2 3 Offset 0.000 0.000 0.000 No. kpts 4 Spacing 0.07
REM Total runtime: 14354.4 s
REM Overall efficiency: 96.7273 %
REM
REM
REM
REM compiler GCC version 4.9.2
REM options -cpp -iprefix /lustre/shared/ucl/apps/gcc/4.9.2/bin/../lib/gcc/x86_64-unknown-linux-gnu/4.9.2/ -mtune=corei7 -march=x86-64 -g -Og
REM COMMAND_LINE
REM seed -250732809 -317772675 2084082002 -481486330 -139781466 117053928 -1754564943 -1948599284 -1900978141 1502344791 -372936278 1990707849
REM
REM S 3|1.8|5|6|7|30:31:32(qc=5)
REM O 2|1.5|12|13|15|20:21(qc=5)
REM Li 1|1.3|8|9|10|10U:20(qc=5)
REM Fe 3|2.2|2.0|1.0|8|9|10|40:41:32(qc=5)
REM 
CELL 1.54180    4.54757    7.79796    6.14164   90.00000   90.00000   90.00000
LATT -1
SFAC Li O  S  Fe 
Li     1 -0.0135970000000  0.0000000000000  0.2462220000000 1.0   0.03
Li     1 -0.0135970000000  0.0000000000000 -0.2462220000000 1.0   0.03
Li     1  0.0407780000000  0.5000000000000 -0.5000000000000 1.0   0.02
O      2 -0.0970700000000 -0.5000000000000  0.1998010000000 1.0   0.25
O      2 -0.0970700000000 -0.5000000000000 -0.1998010000000 1.0   0.25
S      3  0.3597640000000 -0.2219780000000 -0.2524050000000 1.0   0.28
S      3  0.3597640000000  0.2219780000000  0.2524050000000 1.0   0.28
S      3  0.3597640000000  0.2219780000000 -0.2524050000000 1.0   0.28
S      3  0.3597640000000 -0.2219780000000  0.2524050000000 1.0   0.28
Fe     4  0.1018820000000 -0.3424270000000  0.0000000000000 1.0   2.49
Fe     4  0.1018820000000  0.3424270000000  0.0000000000000 1.0   2.49
Fe     4  0.5677350000000 -0.5000000000000  0.0000000000000 1.0   3.56
END
