TITL LFSO-Li2Fe4S2O3-200912-073928-1de187 -0.0658 171.809769 -5.77387781E+003 9.44927 9.79020 11 (Fmm2) n - 1
REM
REM Run started: Sat, 12 Sep 2020 10:08:45 +0100 in /lustre/scratch/uccabz1/launch_tmp/launcher_2020-09-12-06-39-26-179518
REM CASTEP 20.1 from code version af48c487+ pr-geom-scf-spinfix Tue Jun 2 15:39:59 2020 +0100
REM Functional Perdew Burke Ernzerhof Relativity Koelling-Harmon Dispersion off
REM Cut-off 340.0000 eV Grid scale 1.7500 Gmax 16.5316 1/A FBSC none
REM MP grid 3 3 3 Offset 0.000 0.000 0.000 No. kpts 8 Spacing 0.07
REM Total runtime: 9483.8 s
REM Overall efficiency: 96.5 %
REM
REM
REM
REM compiler GCC version 4.9.2
REM options -cpp -iprefix /lustre/shared/ucl/apps/gcc/4.9.2/bin/../lib/gcc/x86_64-unknown-linux-gnu/4.9.2/ -mtune=corei7 -march=x86-64 -g -Og
REM COMMAND_LINE
REM seed -1375295039 -1649678421 -815815574 -799273965 1681891595 672654698 1190740772 646982948 -372179698 951935794 1050034086 -858562172
REM
REM S 3|1.8|5|6|7|30:31:32(qc=5)
REM O 2|1.5|12|13|15|20:21(qc=5)
REM Li 1|1.3|8|9|10|10U:20(qc=5)
REM Fe 3|2.2|2.0|1.0|8|9|10|40:41:32(qc=5)
REM 
CELL 1.54180    5.90592    5.90592    6.26052  106.92068  106.92068  112.51690
LATT -1
SFAC Li O  S  Fe 
Li     1 -0.2132100000000  0.5470940000000  0.3338840000000 1.0  -0.08
Li     1  0.5470940000000 -0.2132100000000  0.3338840000000 1.0  -0.08
O      2  0.3756630000000  0.3756630000000  0.1725980000000 1.0   0.33
O      2 -0.2030650000000 -0.2030650000000  0.1725980000000 1.0   0.33
O      2  0.3756390000000  0.3756390000000 -0.2487210000000 1.0   0.07
S      3 -0.3068460000000  0.0785030000000 -0.2283430000000 1.0   0.01
S      3  0.0785030000000 -0.3068460000000 -0.2283430000000 1.0   0.01
Fe     4 -0.2311900000000  0.5199140000000 -0.0963900000000 1.0   2.22
Fe     4  0.1348000000000  0.3836970000000 -0.0963900000000 1.0   2.22
Fe     4  0.5199140000000 -0.2311900000000 -0.0963900000000 1.0   2.22
Fe     4  0.3836970000000  0.1348000000000 -0.0963900000000 1.0   2.22
END
