TITL LFSO-Li6FeS3O-200910-040519-898ec4 0.0630 179.677671 -3.41117695E+003 3.40463 3.55833 11 (C2/m) n - 1
REM
REM Run started: Thu, 10 Sep 2020 06:20:06 +0100 in /lustre/scratch/uccabz1/launch_tmp/launcher_2020-09-10-03-05-17-912008
REM CASTEP 20.1 from code version af48c487+ pr-geom-scf-spinfix Tue Jun 2 15:39:59 2020 +0100
REM Functional Perdew Burke Ernzerhof Relativity Koelling-Harmon Dispersion off
REM Cut-off 340.0000 eV Grid scale 1.7500 Gmax 16.5316 1/A FBSC none
REM MP grid 4 3 4 Offset 0.000 0.000 0.000 No. kpts 24 Spacing 0.07
REM Total runtime: 8524.77 s
REM Overall efficiency: 96.2857 %
REM
REM
REM
REM compiler GCC version 4.9.2
REM options -cpp -iprefix /lustre/shared/ucl/apps/gcc/4.9.2/bin/../lib/gcc/x86_64-unknown-linux-gnu/4.9.2/ -mtune=corei7 -march=x86-64 -g -Og
REM COMMAND_LINE
REM seed 2124994991 -2067463283 -64554579 1537701005 -1309126315 -1247006279 -1497684106 1855207990 2020810558 1836251877 604724669 1070456539
REM
REM S 3|1.8|5|6|7|30:31:32(qc=5)
REM O 2|1.5|12|13|15|20:21(qc=5)
REM Li 1|1.3|8|9|10|10U:20(qc=5)
REM Fe 3|2.2|2.0|1.0|8|9|10|40:41:32(qc=5)
REM 
CELL 1.54180    6.68234    6.68234    6.93403   76.60695  137.82953  118.11797
LATT -1
SFAC Li O  S  Fe 
Li     1 -0.6101920000000  0.0838230000000  0.1236560000000 1.0  -0.03
Li     1 -0.0398330000000  0.2661530000000 -0.1236560000000 1.0  -0.03
Li     1  0.6101920000000 -0.0838230000000 -0.1236560000000 1.0  -0.03
Li     1  0.0398330000000 -0.2661530000000  0.1236560000000 1.0  -0.03
Li     1  0.0000000000000  0.0000000000000 -0.5000000000000 1.0   0.01
Li     1  0.5000000000000  0.5000000000000  0.5000000000000 1.0   0.01
O      2  0.0000000000000  0.0000000000000  0.0000000000000 1.0   0.01
S      3 -0.5574190000000 -0.2784480000000  0.1641330000000 1.0   0.07
S      3  0.5574190000000  0.2784480000000 -0.1641330000000 1.0   0.07
S      3  0.0000000000000  0.5000000000000  0.5000000000000 1.0   0.18
Fe     4  0.5000000000000 -0.5000000000000  0.0000000000000 1.0   3.18
END
