TITL LFSO-Li3FeS2O-200911-190429-00ec40 -0.0218 243.174862 -5.01578148E+003 8.64691 8.72240 14 (Pma2) n - 1
REM
REM Run started: Fri, 11 Sep 2020 20:20:23 +0100 in /lustre/scratch/uccabz1/launch_tmp/launcher_2020-09-11-18-04-27-878382
REM CASTEP 20.1 from code version af48c487+ pr-geom-scf-spinfix Tue Jun 2 15:39:59 2020 +0100
REM Functional Perdew Burke Ernzerhof Relativity Koelling-Harmon Dispersion off
REM Cut-off 340.0000 eV Grid scale 1.7500 Gmax 16.5316 1/A FBSC none
REM MP grid 2 3 4 Offset 0.000 0.000 0.000 No. kpts 4 Spacing 0.07
REM Total runtime: 5445.47 s
REM Overall efficiency: 96.1667 %
REM
REM
REM
REM compiler GCC version 4.9.2
REM options -cpp -iprefix /lustre/shared/ucl/apps/gcc/4.9.2/bin/../lib/gcc/x86_64-unknown-linux-gnu/4.9.2/ -mtune=corei7 -march=x86-64 -g -Og
REM COMMAND_LINE
REM seed 885974015 282963310 1216831021 -249271898 1923867370 451397571 1153480424 -1573541071 -827281602 979404861 72988091 -401094052
REM
REM S 3|1.8|5|6|7|30:31:32(qc=5)
REM O 2|1.5|12|13|15|20:21(qc=5)
REM Li 1|1.3|8|9|10|10U:20(qc=5)
REM Fe 3|2.2|2.0|1.0|8|9|10|40:41:32(qc=5)
REM 
CELL 1.54180    7.63705    6.22709    5.11338   90.00000   90.00000   90.00000
LATT -1
SFAC Li O  S  Fe 
Li     1 -0.2823550000000 -0.5019820000000 -0.2043150000000 1.0  -0.03
Li     1  0.2823550000000  0.5019820000000 -0.2043150000000 1.0  -0.03
Li     1  0.2823550000000 -0.0019820000000 -0.2043150000000 1.0  -0.03
Li     1 -0.2823550000000  0.0019820000000 -0.2043150000000 1.0  -0.03
Li     1  0.0018170000000  0.2500000000000  0.3337810000000 1.0   0.09
Li     1 -0.0018170000000 -0.2500000000000  0.3337810000000 1.0   0.09
O      2  0.5000000000000  0.0000000000000 -0.0887230000000 1.0   0.35
O      2 -0.5000000000000  0.5000000000000 -0.0887230000000 1.0   0.35
S      3 -0.2498200000000  0.0005740000000  0.3229700000000 1.0   0.13
S      3  0.2498200000000 -0.0005740000000  0.3229700000000 1.0   0.13
S      3  0.2498200000000  0.5005740000000  0.3229700000000 1.0   0.13
S      3 -0.2498200000000 -0.5005740000000  0.3229700000000 1.0   0.13
Fe     4 -0.4900020000000 -0.2500000000000  0.1585490000000 1.0   3.68
Fe     4  0.4900020000000  0.2500000000000  0.1585490000000 1.0   3.68
END
