TITL LFSO-Li4Fe2S2O3-200911-115848-6ef3d9 0.0059 464.651852 -8.88773230E+003 8.01047 8.85591 22 (Cm) n - 1
REM
REM Run started: Sat, 12 Sep 2020 12:53:05 +0100 in /lustre/scratch/uccabz1/launch_tmp/launcher_2020-09-12-10-48-02-827403
REM CASTEP 20.1 from code version af48c487+ pr-geom-scf-spinfix Tue Jun 2 15:39:59 2020 +0100
REM Functional Perdew Burke Ernzerhof Relativity Koelling-Harmon Dispersion off
REM Cut-off 340.0000 eV Grid scale 1.7500 Gmax 16.5316 1/A FBSC none
REM MP grid 3 3 2 Offset 0.000 0.000 0.000 No. kpts 9 Spacing 0.07
REM Total runtime: 88183 s
REM Overall efficiency: 98.7692 %
REM
REM
REM
REM compiler GCC version 4.9.2
REM options -cpp -iprefix /lustre/shared/ucl/apps/gcc/4.9.2/bin/../lib/gcc/x86_64-unknown-linux-gnu/4.9.2/ -mtune=corei7 -march=x86-64 -g -Og
REM COMMAND_LINE
REM seed -161550999 1482073334 29666921 1926750651 -380419653 -816575800 696898776 -1181203214 -106698083 605797979 -553083837 -687263111
REM
REM S 3|1.8|5|6|7|30:31:32(qc=5)
REM O 2|1.5|12|13|15|20:21(qc=5)
REM Li 1|1.3|8|9|10|10U:20(qc=5)
REM Fe 3|2.2|2.0|1.0|8|9|10|40:41:32(qc=5)
REM 
CELL 1.54180    7.71990    6.39438   11.43825  117.19882  109.72220   90.00000
LATT -1
SFAC Li O  S  Fe 
Li     1  0.1016370000000  0.1145270000000 -0.3454150000000 1.0  -0.00
Li     1 -0.4470520000000  0.1145270000000 -0.3454150000000 1.0  -0.00
Li     1 -0.2316650000000 -0.2188990000000  0.0319590000000 1.0  -0.02
Li     1  0.2636240000000 -0.2188990000000  0.0319590000000 1.0  -0.02
Li     1  0.2855410000000  0.2851360000000  0.0171830000000 1.0   0.00
Li     1 -0.2683580000000  0.2851360000000  0.0171830000000 1.0   0.00
Li     1  0.3670020000000 -0.3561850000000  0.2822020000000 1.0  -0.08
Li     1 -0.0848000000000 -0.3561850000000  0.2822020000000 1.0  -0.08
O      2 -0.3869610000000  0.0959790000000 -0.1855360000000 1.0  -0.01
O      2  0.2014250000000  0.0959790000000 -0.1855360000000 1.0  -0.01
O      2 -0.1912200000000 -0.3956090000000  0.1138860000000 1.0   0.35
O      2  0.3051060000000 -0.3956090000000  0.1138860000000 1.0   0.35
O      2 -0.2400740000000  0.1076290000000  0.1143230000000 1.0   0.15
O      2  0.3543970000000  0.1076290000000  0.1143230000000 1.0   0.15
S      3 -0.3787720000000 -0.1859190000000 -0.2533920000000 1.0  -0.02
S      3  0.1253800000000 -0.1859190000000 -0.2533920000000 1.0  -0.02
S      3 -0.5124220000000  0.2021500000000 -0.5296790000000 1.0   0.00
S      3 -0.0172570000000  0.2021500000000 -0.5296790000000 1.0   0.00
Fe     4  0.1499440000000 -0.4487360000000 -0.4345940000000 1.0   1.61
Fe     4  0.4154620000000 -0.4487360000000 -0.4345940000000 1.0   1.61
Fe     4  0.5018670000000  0.1553720000000  0.2751560000000 1.0   2.02
Fe     4 -0.2267120000000  0.1553720000000  0.2751560000000 1.0   2.02
END
