TITL LFSO-Li2FeSO-200912-030626-69feb0 0.1246 365.451169 -8.01259383E+003 10.2125 10.9853 20 (P3) n - 1
REM
REM Run started: Sat, 12 Sep 2020 17:02:18 +0100 in /lustre/scratch/uccabz1/launch_tmp/launcher_2020-09-12-10-44-55-384696
REM CASTEP 20.1 from code version af48c487+ pr-geom-scf-spinfix Tue Jun 2 15:39:59 2020 +0100
REM Functional Perdew Burke Ernzerhof Relativity Koelling-Harmon Dispersion off
REM Cut-off 340.0000 eV Grid scale 1.7500 Gmax 16.5316 1/A FBSC none
REM MP grid 4 4 2 Offset 0.000 0.000 0.000 No. kpts 16 Spacing 0.07
REM Total runtime: 49509.2 s
REM Overall efficiency: 96.6923 %
REM
REM
REM
REM compiler GCC version 4.9.2
REM options -cpp -iprefix /lustre/shared/ucl/apps/gcc/4.9.2/bin/../lib/gcc/x86_64-unknown-linux-gnu/4.9.2/ -mtune=corei7 -march=x86-64 -g -Og
REM COMMAND_LINE
REM seed 1141214343 1663600843 1281989627 716194839 1572099538 -1040681942 1202638087 -1285198005 1712022370 -429651503 969019839 -356372606
REM
REM S 3|1.8|5|6|7|30:31:32(qc=5)
REM O 2|1.5|12|13|15|20:21(qc=5)
REM Li 1|1.3|8|9|10|10U:20(qc=5)
REM Fe 3|2.2|2.0|1.0|8|9|10|40:41:32(qc=5)
REM 
CELL 1.54180    5.42788    5.42788   14.32316   90.00000   90.00000  120.00000
LATT -1
SFAC Li O  S  Fe 
Li     1  0.3323220000000  0.2871480000000 -0.3335740000000 1.0  -0.00
Li     1 -0.2871480000000  0.0451730000000 -0.3335740000000 1.0  -0.00
Li     1 -0.0451730000000 -0.3323220000000 -0.3335740000000 1.0  -0.00
Li     1  0.0357170000000 -0.3466270000000  0.0825050000000 1.0  -0.04
Li     1  0.3466270000000  0.3823440000000  0.0825050000000 1.0  -0.04
Li     1 -0.3823440000000 -0.0357170000000  0.0825050000000 1.0  -0.04
Li     1  0.3333330000000 -0.3333330000000 -0.5152080000000 1.0   0.00
Li     1  0.3333330000000 -0.3333330000000 -0.2554070000000 1.0  -0.02
O      2  0.0001480000000  0.3537650000000 -0.2707300000000 1.0   0.20
O      2 -0.3537650000000 -0.3536170000000 -0.2707300000000 1.0   0.20
O      2  0.3536170000000 -0.0001480000000 -0.2707300000000 1.0   0.20
O      2  0.3333330000000 -0.3333330000000  0.1295000000000 1.0  -0.03
S      3 -0.1332150000000 -0.3221620000000  0.4934150000000 1.0  -0.01
S      3  0.3221620000000  0.1889470000000  0.4934150000000 1.0  -0.01
S      3 -0.1889470000000  0.1332150000000  0.4934150000000 1.0  -0.01
S      3  0.3333330000000 -0.3333330000000 -0.0715570000000 1.0  -0.04
Fe     4 -0.0619800000000  0.3579540000000 -0.1479770000000 1.0   2.31
Fe     4 -0.3579540000000 -0.4199340000000 -0.1479770000000 1.0   2.31
Fe     4  0.4199340000000  0.0619800000000 -0.1479770000000 1.0   2.31
Fe     4 -0.0000000000000  0.0000000000000 -0.0678380000000 1.0   2.90
END
