TITL LFSO-Li2Fe3S3O-200912-163224-31e434 0.0388 278.349703 -8.68092851E+003 17.9897 18.2763 18 (R3) n - 1
REM
REM Run started: Mon, 14 Sep 2020 06:11:51 +0100 in /lustre/scratch/uccabz1/launch_tmp/launcher_2020-09-12-15-32-23-141921
REM CASTEP 20.1 from code version af48c487+ pr-geom-scf-spinfix Tue Jun 2 15:39:59 2020 +0100
REM Functional Perdew Burke Ernzerhof Relativity Koelling-Harmon Dispersion off
REM Cut-off 340.0000 eV Grid scale 1.7500 Gmax 16.5316 1/A FBSC none
REM MP grid 3 3 4 Offset 0.000 0.000 0.000 No. kpts 14 Spacing 0.07
REM Total runtime: 135881 s
REM Overall efficiency: 98.0769 %
REM
REM
REM
REM compiler GCC version 4.9.2
REM options -cpp -iprefix /lustre/shared/ucl/apps/gcc/4.9.2/bin/../lib/gcc/x86_64-unknown-linux-gnu/4.9.2/ -mtune=corei7 -march=x86-64 -g -Og
REM COMMAND_LINE
REM seed 1038585302 1636429576 -1459609285 -1775540336 -1873784233 430235267 1819794651 -827878382 119784120 44278730 337061920 104317317
REM
REM S 3|1.8|5|6|7|30:31:32(qc=5)
REM O 2|1.5|12|13|15|20:21(qc=5)
REM Li 1|1.3|8|9|10|10U:20(qc=5)
REM Fe 3|2.2|2.0|1.0|8|9|10|40:41:32(qc=5)
REM 
CELL 1.54180    8.89000    8.89000    6.54852   47.25170   47.25170   60.00000
LATT -1
SFAC Li O  S  Fe 
Li     1 -0.5317870000000  0.2703610000000  0.1768520000000 1.0  -0.01
Li     1  0.0845740000000 -0.5317870000000  0.1768520000000 1.0  -0.01
Li     1  0.2703610000000  0.0845740000000  0.1768520000000 1.0  -0.01
Li     1 -0.0656140000000 -0.0656140000000  0.1968420000000 1.0  -0.04
O      2  0.3542330000000  0.3542330000000 -0.0626990000000 1.0   0.06
O      2 -0.2226990000000 -0.2226990000000 -0.3319020000000 1.0   0.35
S      3 -0.2457070000000  0.4347840000000 -0.3520030000000 1.0   0.12
S      3  0.1629250000000 -0.2457070000000 -0.3520030000000 1.0   0.12
S      3  0.4347840000000  0.1629250000000 -0.3520030000000 1.0   0.12
S      3  0.2452930000000 -0.3733120000000  0.2009100000000 1.0   0.17
S      3 -0.0728900000000  0.2452930000000  0.2009100000000 1.0   0.17
S      3 -0.3733120000000 -0.0728900000000  0.2009100000000 1.0   0.17
Fe     4  0.2697850000000 -0.5363740000000 -0.3619060000000 1.0   2.21
Fe     4 -0.3715050000000  0.2697850000000 -0.3619060000000 1.0   2.21
Fe     4 -0.5363740000000 -0.3715050000000 -0.3619060000000 1.0   2.21
Fe     4  0.5134520000000 -0.1573540000000 -0.2783170000000 1.0   3.40
Fe     4 -0.0777810000000  0.5134520000000 -0.2783170000000 1.0   3.40
Fe     4 -0.1573540000000 -0.0777810000000 -0.2783170000000 1.0   3.40
END
