TITL LFSO-Li2Fe4S3O2-200912-030631-108866 -0.0237 301.373170 -1.12833083E+004 -19.5160 20.2997 22 (P-1) n - 1
REM
REM Run started: Sun, 13 Sep 2020 10:30:35 +0100 in /lustre/scratch/uccabz1/launch_tmp/launcher_2020-09-12-10-42-26-267899
REM CASTEP 20.1 from code version af48c487+ pr-geom-scf-spinfix Tue Jun 2 15:39:59 2020 +0100
REM Functional Perdew Burke Ernzerhof Relativity Koelling-Harmon Dispersion off
REM Cut-off 340.0000 eV Grid scale 1.7500 Gmax 16.5316 1/A FBSC none
REM MP grid 4 3 2 Offset 0.000 0.000 0.000 No. kpts 12 Spacing 0.07
REM Total runtime: 99812.3 s
REM Overall efficiency: 98.5 %
REM
REM
REM
REM compiler GCC version 4.9.2
REM options -cpp -iprefix /lustre/shared/ucl/apps/gcc/4.9.2/bin/../lib/gcc/x86_64-unknown-linux-gnu/4.9.2/ -mtune=corei7 -march=x86-64 -g -Og
REM COMMAND_LINE
REM seed -1237883158 1081859469 -379580994 -1327356494 1445609369 805182715 1174709117 1092041917 839554621 -696201887 -1616408906 -541367930
REM
REM S 3|1.8|5|6|7|30:31:32(qc=5)
REM O 2|1.5|12|13|15|20:21(qc=5)
REM Li 1|1.3|8|9|10|10U:20(qc=5)
REM Fe 3|2.2|2.0|1.0|8|9|10|40:41:32(qc=5)
REM 
CELL 1.54180    6.33009    7.12103   11.20944   86.77050  125.47712  125.82052
LATT -1
SFAC Li O  S  Fe 
Li     1  0.4296570000000  0.3022830000000  0.5130860000000 1.0   0.00
Li     1 -0.4296570000000 -0.3022830000000 -0.5130860000000 1.0   0.00
Li     1  0.1797550000000 -0.0700000000000 -0.3758860000000 1.0   0.01
Li     1 -0.1797550000000  0.0700000000000  0.3758860000000 1.0   0.01
O      2 -0.1082490000000 -0.3512240000000 -0.3421800000000 1.0  -0.16
O      2  0.1082490000000  0.3512240000000  0.3421800000000 1.0  -0.16
O      2  0.2193800000000  0.2257140000000 -0.3900740000000 1.0   0.02
O      2 -0.2193800000000 -0.2257140000000  0.3900740000000 1.0   0.02
S      3  0.4481300000000  0.1810880000000 -0.0077430000000 1.0  -0.10
S      3 -0.4481300000000 -0.1810880000000  0.0077430000000 1.0  -0.10
S      3  0.2386400000000 -0.1572350000000  0.2794080000000 1.0  -0.16
S      3 -0.2386400000000  0.1572350000000 -0.2794080000000 1.0  -0.16
S      3 -0.5328190000000 -0.5149910000000 -0.2394330000000 1.0   0.04
S      3  0.5328190000000  0.5149910000000  0.2394330000000 1.0   0.04
Fe     4 -0.1495440000000 -0.4454670000000  0.0152300000000 1.0  -2.35
Fe     4  0.1495440000000  0.4454670000000 -0.0152300000000 1.0  -2.35
Fe     4  0.2502470000000  0.0652000000000  0.1320100000000 1.0  -2.59
Fe     4 -0.2502470000000 -0.0652000000000 -0.1320100000000 1.0  -2.59
Fe     4 -0.1565100000000  0.4472190000000  0.2523200000000 1.0  -2.26
Fe     4  0.1565100000000 -0.4472190000000 -0.2523200000000 1.0  -2.26
Fe     4  0.0153690000000 -0.2515980000000 -0.1368680000000 1.0  -2.21
Fe     4 -0.0153690000000  0.2515980000000  0.1368680000000 1.0  -2.21
END
