TITL LFSO-Li3Fe3S4O2-201002-151434-dbb4e5 0.0441 201.273527 -5.27970510E+003 2.67309 2.95596 12 (R3) n - 1
REM
REM Run started: Fri, 02 Oct 2020 17:23:46 +0100 in /lustre/scratch/uccabz1/launch_tmp/launcher_2020-10-02-14-14-32-739344
REM CASTEP 20.1 from code version af48c487+ pr-geom-scf-spinfix Tue Jun 2 15:39:59 2020 +0100
REM Functional Perdew Burke Ernzerhof Relativity Koelling-Harmon Dispersion off
REM Cut-off 340.0000 eV Grid scale 1.7500 Gmax 16.5316 1/A FBSC none
REM MP grid 3 3 3 Offset 0.000 0.000 0.000 No. kpts 6 Spacing 0.07
REM Total runtime: 7792.87 s
REM Overall efficiency: 93.2222 %
REM
REM
REM
REM compiler GCC version 4.9.2
REM options -cpp -iprefix /lustre/shared/ucl/apps/gcc/4.9.2/bin/../lib/gcc/x86_64-unknown-linux-gnu/4.9.2/ -mtune=corei7 -march=x86-64 -g -Og
REM COMMAND_LINE
REM seed -1700902772 811231491 -379147509 386526030 781215334 -267621007 756128157 -1296338773 -1937711316 2061505792 1278365388 1464905034
REM
REM S 3|1.8|5|6|7|30:31:32(qc=5)
REM O 2|1.5|12|13|15|20:21(qc=5)
REM Li 1|1.3|8|9|10|10U:20(qc=5)
REM Fe 3|2.2|2.0|1.0|8|9|10|40:41:32(qc=5)
REM 
CELL 1.54180    6.51802    6.51802    6.63985   60.60507   60.60507   60.00000
LATT -1
SFAC Li O  S  Fe 
Li     1 -0.0235970000000 -0.1629740000000 -0.1147440000000 1.0  -0.01
Li     1 -0.1629740000000  0.3013150000000 -0.1147440000000 1.0  -0.01
Li     1  0.3013150000000 -0.0235970000000 -0.1147440000000 1.0  -0.01
O      2  0.0932500000000  0.0932500000000 -0.2797490000000 1.0   0.04
O      2 -0.0637900000000 -0.0637900000000  0.1913710000000 1.0   0.04
S      3  0.3765570000000  0.3784080000000  0.3915760000000 1.0   0.08
S      3  0.3784080000000 -0.1465410000000  0.3915760000000 1.0   0.08
S      3 -0.1465410000000  0.3765570000000  0.3915760000000 1.0   0.08
S      3 -0.2389860000000 -0.2389860000000 -0.2830440000000 1.0   0.02
Fe     4 -0.2683250000000 -0.2711300000000 -0.5922220000000 1.0   0.79
Fe     4 -0.2711300000000  0.1316760000000 -0.5922220000000 1.0   0.79
Fe     4  0.1316760000000 -0.2683250000000 -0.5922220000000 1.0   0.79
END
