TITL LFSO-LiFe3S4O-200909-111731-9d3197 -0.0780 476.268963 -8.88458291E+003 1.79731 8.16800 18 (Pm) n - 1
REM
REM Run started: Thu, 10 Sep 2020 08:18:15 +0100 in /lustre/scratch/uccabz1/launch_tmp/launcher_2020-09-10-06-28-49-740041
REM CASTEP 20.1 from code version af48c487+ pr-geom-scf-spinfix Tue Jun 2 15:39:59 2020 +0100
REM Functional Perdew Burke Ernzerhof Relativity Koelling-Harmon Dispersion off
REM Cut-off 340.0000 eV Grid scale 1.7500 Gmax 16.5316 1/A FBSC none
REM MP grid 2 2 3 Offset 0.000 0.000 0.000 No. kpts 3 Spacing 0.07
REM Total runtime: 57781.2 s
REM Overall efficiency: 92.1538 %
REM
REM
REM
REM compiler GCC version 4.9.2
REM options -cpp -iprefix /lustre/shared/ucl/apps/gcc/4.9.2/bin/../lib/gcc/x86_64-unknown-linux-gnu/4.9.2/ -mtune=corei7 -march=x86-64 -g -Og
REM COMMAND_LINE
REM seed 984745936 1655361571 835577750 -958033512 -1360649235 -332708757 -1727931238 2091768473 -1512667060 1140991031 1368883886 -514030370
REM
REM S 3|1.8|5|6|7|30:31:32(qc=5)
REM O 2|1.5|12|13|15|20:21(qc=5)
REM Li 1|1.3|8|9|10|10U:20(qc=5)
REM Fe 3|2.2|2.0|1.0|8|9|10|40:41:32(qc=5)
REM 
CELL 1.54180    8.96013    7.60198    7.50374   90.00000  111.27935   90.00000
LATT -1
SFAC Li O  S  Fe 
Li     1  0.1894500000000  0.2519800000000  0.4285080000000 1.0   0.00
Li     1  0.1894500000000 -0.2519800000000  0.4285080000000 1.0   0.00
O      2  0.3940600000000  0.2972490000000 -0.4548720000000 1.0   0.12
O      2  0.3940600000000 -0.2972490000000 -0.4548720000000 1.0   0.12
S      3 -0.4458310000000 -0.1305010000000 -0.0993290000000 1.0   0.09
S      3 -0.4458310000000  0.1305010000000 -0.0993290000000 1.0   0.09
S      3  0.5524550000000 -0.3375810000000  0.2356530000000 1.0  -0.13
S      3  0.5524550000000  0.3375810000000  0.2356530000000 1.0  -0.13
S      3 -0.1886420000000 -0.2778770000000 -0.3094430000000 1.0   0.01
S      3 -0.1886420000000  0.2778770000000 -0.3094430000000 1.0   0.01
S      3 -0.0820810000000 -0.2439000000000  0.2279300000000 1.0   0.02
S      3 -0.0820810000000  0.2439000000000  0.2279300000000 1.0   0.02
Fe     4 -0.4343580000000 -0.3552740000000  0.5187290000000 1.0   0.96
Fe     4 -0.4343580000000  0.3552740000000  0.5187290000000 1.0   0.96
Fe     4 -0.1962910000000  0.1415170000000 -0.0602200000000 1.0  -1.34
Fe     4 -0.1962910000000 -0.1415170000000 -0.0602200000000 1.0  -1.34
Fe     4 -0.2010440000000 -0.3564260000000  0.4053570000000 1.0   1.17
Fe     4 -0.2010440000000  0.3564260000000  0.4053570000000 1.0   1.17
END
