TITL LFSO-Li3Fe3S4O2-200929-205911-4838dd 0.0321 459.576443 -1.05634916E+004 17.7360 18.3724 24 (Aea2) n - 1
REM
REM Run started: Wed, 30 Sep 2020 06:37:01 +0100 in /lustre/scratch/uccabz1/launch_tmp/launcher_2020-09-30-00-22-34-244990
REM CASTEP 20.1 from code version af48c487+ pr-geom-scf-spinfix Tue Jun 2 15:39:59 2020 +0100
REM Functional Perdew Burke Ernzerhof Relativity Koelling-Harmon Dispersion off
REM Cut-off 340.0000 eV Grid scale 1.7500 Gmax 16.5316 1/A FBSC none
REM MP grid 3 3 2 Offset 0.000 0.000 0.000 No. kpts 4 Spacing 0.07
REM Total runtime: 32471.6 s
REM Overall efficiency: 97.7692 %
REM
REM
REM
REM compiler GCC version 4.9.2
REM options -cpp -iprefix /scratch/UCL/applications/gcc/4.9.2/bin/../lib/gcc/x86_64-unknown-linux-gnu/4.9.2/ -mtune=corei7 -march=x86-64 -g -O2
REM COMMAND_LINE
REM seed 990390803 71788185 -1037874712 1030298442 975225081 1543552913 636793113 -180427553 -1299485732 -1516870962 -1492337325 837984295
REM
REM S 3|1.8|5|6|7|30:31:32(qc=5)
REM O 2|1.5|12|13|15|20:21(qc=5)
REM Li 1|1.3|8|9|10|10U:20(qc=5)
REM Fe 3|2.2|2.0|1.0|8|9|10|40:41:32(qc=5)
REM 
CELL 1.54180    6.93115    6.93115   10.25857   90.00000   90.00000  111.16827
LATT -1
SFAC Li O  S  Fe 
Li     1  0.0714690000000 -0.3380710000000  0.1177300000000 1.0   0.00
Li     1 -0.3380710000000  0.0714690000000 -0.1177300000000 1.0   0.00
Li     1  0.1619290000000  0.5714690000000 -0.3822700000000 1.0   0.00
Li     1  0.5714690000000  0.1619290000000  0.3822700000000 1.0   0.00
Li     1  0.0407780000000  0.0407780000000  0.0000000000000 1.0  -0.01
Li     1 -0.4592220000000 -0.4592220000000  0.5000000000000 1.0  -0.01
O      2  0.0302480000000 -0.1003170000000  0.1582480000000 1.0   0.41
O      2 -0.1003170000000  0.0302480000000 -0.1582480000000 1.0   0.41
O      2  0.3996830000000 -0.4697520000000 -0.3417520000000 1.0   0.41
O      2 -0.4697520000000  0.3996830000000  0.3417520000000 1.0   0.41
S      3 -0.1411600000000 -0.3309450000000 -0.3443120000000 1.0   0.03
S      3 -0.3309450000000 -0.1411600000000  0.3443120000000 1.0   0.03
S      3  0.1690550000000  0.3588400000000  0.1556880000000 1.0   0.03
S      3  0.3588400000000  0.1690550000000 -0.1556880000000 1.0   0.03
S      3  0.2556160000000 -0.0256060000000  0.5520970000000 1.0   0.10
S      3 -0.0256060000000  0.2556160000000 -0.5520970000000 1.0   0.10
S      3  0.4743940000000 -0.2443840000000  0.0520970000000 1.0   0.10
S      3 -0.2443840000000  0.4743940000000 -0.0520970000000 1.0   0.10
Fe     4  0.4839200000000 -0.4346300000000  0.2317090000000 1.0   2.64
Fe     4 -0.4346300000000  0.4839200000000 -0.2317090000000 1.0   2.64
Fe     4  0.0653700000000 -0.0160800000000 -0.2682910000000 1.0   2.64
Fe     4 -0.0160800000000  0.0653700000000  0.2682910000000 1.0   2.64
Fe     4 -0.0679060000000 -0.0679060000000  0.5000000000000 1.0   2.50
Fe     4  0.4320940000000  0.4320940000000  0.0000000000000 1.0   2.50
END
