TITL LFSO-Li2FeSO-200912-035358-4bf693 -0.0019 62.278620 -2.00169482E+003 3.97838 4.05816 5 (I-4m2) n - 1
REM
REM Run started: Sat, 12 Sep 2020 04:02:42 +0100 in /lustre/scratch/uccabz1/launch_tmp/launcher_2020-09-12-02-53-56-230754
REM CASTEP 20.1 from code version af48c487+ pr-geom-scf-spinfix Tue Jun 2 15:39:59 2020 +0100
REM Functional Perdew Burke Ernzerhof Relativity Koelling-Harmon Dispersion off
REM Cut-off 340.0000 eV Grid scale 1.7500 Gmax 16.5316 1/A FBSC none
REM MP grid 4 4 5 Offset 0.000 0.000 0.000 No. kpts 26 Spacing 0.07
REM Total runtime: 548.9 s
REM Overall efficiency: 81.8 %
REM
REM
REM
REM compiler GCC version 4.9.2
REM options -cpp -iprefix /lustre/shared/ucl/apps/gcc/4.9.2/bin/../lib/gcc/x86_64-unknown-linux-gnu/4.9.2/ -mtune=corei7 -march=x86-64 -g -Og
REM COMMAND_LINE
REM seed -1217603777 -1473637310 -73757347 1660041358 1088779941 1158471667 -662637632 -1240285257 -1846778485 -2092335410 181076125 766654031
REM
REM S 3|1.8|5|6|7|30:31:32(qc=5)
REM O 2|1.5|12|13|15|20:21(qc=5)
REM Li 1|1.3|8|9|10|10U:20(qc=5)
REM Fe 3|2.2|2.0|1.0|8|9|10|40:41:32(qc=5)
REM 
CELL 1.54180    4.60724    4.60724    4.21189  117.30581  117.30581   99.27953
LATT -1
SFAC Li O  S  Fe 
Li     1 -0.0861260000000  0.0861260000000 -0.5000000000000 1.0  -0.08
Li     1 -0.4138740000000  0.4138740000000 -0.5000000000000 1.0  -0.08
O      2  0.0000000000000  0.0000000000000  0.0000000000000 1.0   0.37
S      3 -0.5000000000000 -0.5000000000000  0.0000000000000 1.0   0.19
Fe     4  0.2500000000000 -0.2500000000000 -0.5000000000000 1.0   3.57
END
