TITL LFSO-LiFe3S4O-200909-112228-9e67a5 0.0160 404.151612 -8.88392768E+003 -2.33424 8.44354 18 (Amm2) n - 1
REM
REM Run started: Thu, 10 Sep 2020 00:57:13 +0100 in /lustre/scratch/uccabz1/launch_tmp/launcher_2020-09-09-10-22-25-507822
REM CASTEP 20.1 from code version af48c487+ pr-geom-scf-spinfix Tue Jun 2 15:39:59 2020 +0100
REM Functional Perdew Burke Ernzerhof Relativity Koelling-Harmon Dispersion off
REM Cut-off 340.0000 eV Grid scale 1.7500 Gmax 16.5316 1/A FBSC none
REM MP grid 3 2 2 Offset 0.000 0.000 0.000 No. kpts 4 Spacing 0.07
REM Total runtime: 53033.9 s
REM Overall efficiency: 97.9231 %
REM
REM
REM
REM compiler GCC version 4.9.2
REM options -cpp -iprefix /lustre/shared/ucl/apps/gcc/4.9.2/bin/../lib/gcc/x86_64-unknown-linux-gnu/4.9.2/ -mtune=corei7 -march=x86-64 -g -Og
REM COMMAND_LINE
REM seed 454861983 -1615446747 757536522 -923327681 199623455 -551756418 1745680706 1110787347 -1819618376 1419947295 -1738309466 2080621201
REM
REM S 3|1.8|5|6|7|30:31:32(qc=5)
REM O 2|1.5|12|13|15|20:21(qc=5)
REM Li 1|1.3|8|9|10|10U:20(qc=5)
REM Fe 3|2.2|2.0|1.0|8|9|10|40:41:32(qc=5)
REM 
CELL 1.54180    5.75796    8.55814    8.55814   73.40230   90.00000   90.00000
LATT -1
SFAC Li O  S  Fe 
Li     1 -0.2514020000000 -0.2317580000000  0.2317580000000 1.0  -0.04
Li     1  0.2514020000000 -0.2317580000000  0.2317580000000 1.0  -0.04
O      2  0.0000000000000  0.5905520000000 -0.2224170000000 1.0  -0.02
O      2  0.0000000000000  0.2224170000000 -0.5905520000000 1.0  -0.02
S      3  0.2483040000000 -0.5053660000000  0.1735080000000 1.0   0.00
S      3 -0.2483040000000 -0.1735080000000  0.5053660000000 1.0   0.00
S      3  0.2483040000000 -0.1735080000000  0.5053660000000 1.0   0.00
S      3 -0.2483040000000 -0.5053660000000  0.1735080000000 1.0   0.00
S      3  0.2549370000000 -0.1505730000000 -0.0980030000000 1.0   0.03
S      3 -0.2549370000000  0.0980030000000  0.1505730000000 1.0   0.03
S      3  0.2549370000000  0.0980030000000  0.1505730000000 1.0   0.03
S      3 -0.2549370000000 -0.1505730000000 -0.0980030000000 1.0   0.03
Fe     4  0.2664930000000  0.2450830000000  0.3095130000000 1.0  -1.25
Fe     4 -0.2664930000000 -0.3095130000000 -0.2450830000000 1.0  -1.25
Fe     4  0.2664930000000 -0.3095130000000 -0.2450830000000 1.0  -1.25
Fe     4 -0.2664930000000  0.2450830000000  0.3095130000000 1.0  -1.25
Fe     4  0.5000000000000 -0.0196380000000  0.3521620000000 1.0   1.34
Fe     4  0.5000000000000 -0.3521620000000  0.0196380000000 1.0   1.34
END
