TITL LFSO-LiFe3S4O-200909-112814-18f063 0.0338 352.561662 -8.88655952E+003 -12.6524 13.5578 18 (R3) n - 1
REM
REM Run started: Thu, 10 Sep 2020 02:59:18 +0100 in /lustre/scratch/uccabz1/launch_tmp/launcher_2020-09-09-10-28-11-989490
REM CASTEP 20.1 from code version af48c487+ pr-geom-scf-spinfix Tue Jun 2 15:39:59 2020 +0100
REM Functional Perdew Burke Ernzerhof Relativity Koelling-Harmon Dispersion off
REM Cut-off 340.0000 eV Grid scale 1.7500 Gmax 16.5316 1/A FBSC none
REM MP grid 3 3 3 Offset 0.000 0.000 0.000 No. kpts 6 Spacing 0.07
REM Total runtime: 56446.8 s
REM Overall efficiency: 98.4545 %
REM
REM
REM
REM compiler GCC version 4.9.2
REM options -cpp -iprefix /lustre/shared/ucl/apps/gcc/4.9.2/bin/../lib/gcc/x86_64-unknown-linux-gnu/4.9.2/ -mtune=corei7 -march=x86-64 -g -Og
REM COMMAND_LINE
REM seed -1554244532 -988678689 527612315 -982879778 -1619480482 -1186904979 941015104 398980099 -769352516 -716809888 288003371 1120271646
REM
REM S 3|1.8|5|6|7|30:31:32(qc=5)
REM O 2|1.5|12|13|15|20:21(qc=5)
REM Li 1|1.3|8|9|10|10U:20(qc=5)
REM Fe 3|2.2|2.0|1.0|8|9|10|40:41:32(qc=5)
REM 
CELL 1.54180    7.65327    7.65327    8.23605   62.31435   62.31435   60.00000
LATT -1
SFAC Li O  S  Fe 
Li     1 -0.2007640000000 -0.2007640000000  0.6022930000000 1.0   0.00
Li     1  0.0390330000000  0.0390330000000 -0.1170990000000 1.0  -0.01
O      2  0.1278500000000  0.1278500000000 -0.3835510000000 1.0  -0.10
O      2  0.2428650000000  0.2428650000000  0.2714040000000 1.0  -0.14
S      3 -0.2990780000000  0.1465980000000 -0.3953490000000 1.0  -0.13
S      3  0.1465980000000 -0.4521710000000 -0.3953490000000 1.0  -0.13
S      3 -0.4521710000000 -0.2990780000000 -0.3953490000000 1.0  -0.13
S      3  0.0724590000000 -0.3356350000000  0.1734170000000 1.0   0.07
S      3 -0.3356350000000  0.0897590000000  0.1734170000000 1.0   0.07
S      3  0.0897590000000  0.0724590000000  0.1734170000000 1.0   0.07
S      3  0.5769840000000  0.5769840000000 -0.7309510000000 1.0   0.02
S      3 -0.3268050000000 -0.3268050000000 -0.0195840000000 1.0   0.04
Fe     4 -0.2507760000000  0.2220720000000  0.3009710000000 1.0  -1.87
Fe     4  0.2220720000000 -0.2722680000000  0.3009710000000 1.0  -1.87
Fe     4 -0.2722680000000 -0.2507760000000  0.3009710000000 1.0  -1.87
Fe     4  0.0275280000000  0.1303090000000  0.4345340000000 1.0  -2.22
Fe     4  0.1303090000000  0.4076290000000  0.4345340000000 1.0  -2.22
Fe     4  0.4076290000000  0.0275280000000  0.4345340000000 1.0  -2.22
END
