TITL LFSO-LiFeSO-200909-052942-359961 0.0297 459.830467 -1.08259961E+004 16.7375 17.2332 24 (Cmm2) n - 1
REM
REM Run started: Wed, 09 Sep 2020 14:23:10 +0100 in /lustre/scratch/uccabz1/launch_tmp/launcher_2020-09-09-04-29-40-516459
REM CASTEP 20.1 from code version af48c487+ pr-geom-scf-spinfix Tue Jun 2 15:39:59 2020 +0100
REM Functional Perdew Burke Ernzerhof Relativity Koelling-Harmon Dispersion off
REM Cut-off 340.0000 eV Grid scale 1.7500 Gmax 16.5316 1/A FBSC none
REM MP grid 3 3 2 Offset 0.000 0.000 0.000 No. kpts 4 Spacing 0.07
REM Total runtime: 38736.9 s
REM Overall efficiency: 98.625 %
REM
REM
REM
REM compiler GCC version 4.9.2
REM options -cpp -iprefix /lustre/shared/ucl/apps/gcc/4.9.2/bin/../lib/gcc/x86_64-unknown-linux-gnu/4.9.2/ -mtune=corei7 -march=x86-64 -g -Og
REM COMMAND_LINE
REM seed -2141910035 -455017272 534571794 311467547 679743484 1892337191 -1788152270 273421165 -5875488 1194927231 -1685932282 -657649069
REM
REM S 3|1.8|5|6|7|30:31:32(qc=5)
REM O 2|1.5|12|13|15|20:21(qc=5)
REM Li 1|1.3|8|9|10|10U:20(qc=5)
REM Fe 3|2.2|2.0|1.0|8|9|10|40:41:32(qc=5)
REM 
CELL 1.54180    7.52060    7.24172    9.87940   90.00000   90.00000  121.28233
LATT -1
SFAC Li O  S  Fe 
Li     1  0.1854400000000 -0.2495350000000 -0.1228590000000 1.0   0.01
Li     1 -0.1854400000000  0.2495350000000 -0.1228590000000 1.0   0.01
Li     1 -0.4349750000000 -0.2495350000000 -0.1228590000000 1.0   0.01
Li     1  0.4349750000000  0.2495350000000 -0.1228590000000 1.0   0.01
Li     1 -0.3605170000000 -0.7210330000000  0.3465890000000 1.0   0.01
Li     1  0.3605170000000  0.7210330000000  0.3465890000000 1.0   0.01
O      2  0.4812200000000  0.2909430000000  0.4918400000000 1.0   0.17
O      2 -0.4812200000000 -0.2909430000000  0.4918400000000 1.0   0.17
O      2 -0.1902770000000  0.2909430000000  0.4918400000000 1.0   0.17
O      2  0.1902770000000 -0.2909430000000  0.4918400000000 1.0   0.17
O      2  0.3846700000000 -0.2306600000000 -0.2386630000000 1.0   0.28
O      2 -0.3846700000000  0.2306600000000 -0.2386630000000 1.0   0.28
S      3 -0.4778860000000 -0.2237850000000  0.1148150000000 1.0  -0.00
S      3  0.4778860000000  0.2237850000000  0.1148150000000 1.0  -0.00
S      3  0.2541010000000 -0.2237850000000  0.1148150000000 1.0  -0.00
S      3 -0.2541010000000  0.2237850000000  0.1148150000000 1.0  -0.00
S      3  0.1490260000000  0.2980510000000 -0.2200060000000 1.0   0.13
S      3 -0.1490260000000 -0.2980510000000 -0.2200060000000 1.0   0.13
Fe     4 -0.2656470000000 -0.2118630000000 -0.4023480000000 1.0   2.78
Fe     4  0.2656470000000  0.2118630000000 -0.4023480000000 1.0   2.78
Fe     4  0.0537850000000 -0.2118630000000 -0.4023480000000 1.0   2.78
Fe     4 -0.0537850000000  0.2118630000000 -0.4023480000000 1.0   2.78
Fe     4 -0.2988740000000 -0.5977470000000 -0.3809980000000 1.0   2.04
Fe     4  0.2988740000000  0.5977470000000 -0.3809980000000 1.0   2.04
END
