TITL LFSO-Li4Fe3S4O-200925-174517-339956 0.0147 250.346932 -5.04058740E+003 -0.965141 9.05367 12 (Pm) n - 1
REM
REM Run started: Sat, 26 Sep 2020 04:00:51 +0100 in /lustre/scratch/uccabz1/launch_tmp/launcher_2020-09-25-16-45-16-208785
REM CASTEP 20.1 from code version af48c487+ pr-geom-scf-spinfix Tue Jun 2 15:39:59 2020 +0100
REM Functional Perdew Burke Ernzerhof Relativity Koelling-Harmon Dispersion off
REM Cut-off 340.0000 eV Grid scale 1.7500 Gmax 16.5316 1/A FBSC none
REM MP grid 6 2 2 Offset 0.000 0.000 0.000 No. kpts 6 Spacing 0.07
REM Total runtime: 40314.6 s
REM Overall efficiency: 97.5833 %
REM
REM
REM
REM compiler GCC version 4.9.2
REM options -cpp -iprefix /lustre/shared/ucl/apps/gcc/4.9.2/bin/../lib/gcc/x86_64-unknown-linux-gnu/4.9.2/ -mtune=corei7 -march=x86-64 -g -Og
REM COMMAND_LINE
REM seed 1066118812 -1441085342 2125914394 249724852 -1178696476 1830485227 -155313212 1283463059 -1824322982 -1308293721 -354527865 515669417
REM
REM S 3|1.8|5|6|7|30:31:32(qc=5)
REM O 2|1.5|12|13|15|20:21(qc=5)
REM Li 1|1.3|8|9|10|10U:20(qc=5)
REM Fe 3|2.2|2.0|1.0|8|9|10|40:41:32(qc=5)
REM 
CELL 1.54180    2.97763    9.88557    9.65816   90.00000   90.00000  118.28588
LATT -1
SFAC Li O  S  Fe 
Li     1 -0.1325090000000 -0.0182720000000 -0.1587200000000 1.0   0.00
Li     1 -0.1325090000000 -0.0182720000000  0.1587200000000 1.0   0.00
Li     1  0.4157330000000  0.3356320000000 -0.2996660000000 1.0   0.03
Li     1  0.4157330000000  0.3356320000000  0.2996660000000 1.0   0.03
O      2 -0.3347980000000 -0.1435580000000  0.0000000000000 1.0   0.37
S      3 -0.2052860000000 -0.3860960000000 -0.2165530000000 1.0   0.04
S      3 -0.2052860000000 -0.3860960000000  0.2165530000000 1.0   0.04
S      3  0.5933210000000  0.1312060000000 -0.2888640000000 1.0  -0.01
S      3  0.5933210000000  0.1312060000000  0.2888640000000 1.0  -0.01
Fe     4  0.3098550000000 -0.3762860000000  0.3832840000000 1.0  -2.41
Fe     4  0.3098550000000 -0.3762860000000 -0.3832840000000 1.0  -2.41
Fe     4 -0.0464690000000 -0.2772670000000  0.0000000000000 1.0   3.35
END
