TITL LFSO-Li4Fe3S4O-200925-222118-3ca930 0.0327 271.261985 -5.04378249E+003 8.00006 8.60727 12 (P-4) n - 1
REM
REM Run started: Sat, 26 Sep 2020 01:39:45 +0100 in /lustre/scratch/uccabz1/launch_tmp/launcher_2020-09-25-21-21-17-287419
REM CASTEP 20.1 from code version af48c487+ pr-geom-scf-spinfix Tue Jun 2 15:39:59 2020 +0100
REM Functional Perdew Burke Ernzerhof Relativity Koelling-Harmon Dispersion off
REM Cut-off 340.0000 eV Grid scale 1.7500 Gmax 16.5316 1/A FBSC none
REM MP grid 2 2 4 Offset 0.000 0.000 0.000 No. kpts 2 Spacing 0.07
REM Total runtime: 11946.3 s
REM Overall efficiency: 89.7778 %
REM
REM
REM
REM compiler GCC version 4.9.2
REM options -cpp -iprefix /lustre/shared/ucl/apps/gcc/4.9.2/bin/../lib/gcc/x86_64-unknown-linux-gnu/4.9.2/ -mtune=corei7 -march=x86-64 -g -Og
REM COMMAND_LINE
REM seed 342483352 453922692 -472918222 -101272534 642497646 1600016078 758035731 -1799968069 858061775 -917146257 -372657142 479699516
REM
REM S 3|1.8|5|6|7|30:31:32(qc=5)
REM O 2|1.5|12|13|15|20:21(qc=5)
REM Li 1|1.3|8|9|10|10U:20(qc=5)
REM Fe 3|2.2|2.0|1.0|8|9|10|40:41:32(qc=5)
REM 
CELL 1.54180    8.69624    8.69624    3.58696   90.00000   90.00000   90.00000
LATT -1
SFAC Li O  S  Fe 
Li     1  0.3221090000000  0.3220660000000 -0.0743800000000 1.0  -0.05
Li     1 -0.3221090000000 -0.3220660000000 -0.0743800000000 1.0  -0.05
Li     1  0.3220660000000 -0.3221090000000  0.0743800000000 1.0  -0.05
Li     1 -0.3220660000000  0.3221090000000  0.0743800000000 1.0  -0.05
O      2 -0.5000000000000  0.5000000000000 -0.0000000000000 1.0   0.25
S      3 -0.4940190000000 -0.1736550000000 -0.5215570000000 1.0   0.01
S      3  0.4940190000000  0.1736550000000 -0.5215570000000 1.0   0.01
S      3 -0.1736550000000  0.4940190000000  0.5215570000000 1.0   0.01
S      3  0.1736550000000 -0.4940190000000  0.5215570000000 1.0   0.01
Fe     4 -0.5000000000000  0.0000000000000 -0.0243640000000 1.0   2.32
Fe     4  0.0000000000000 -0.5000000000000  0.0243640000000 1.0   2.32
Fe     4 -0.5000000000000  0.5000000000000  0.5000000000000 1.0   3.29
END
