TITL LFSO-Li2Fe3S2O2-200921-023453-05ed48 0.0486 137.152326 -4.47530813E+003 7.58442 7.95440 9 (Cmmm) n - 1
REM
REM Run started: Mon, 21 Sep 2020 03:38:17 +0100 in /lustre/scratch/uccabz1/launch_tmp/launcher_2020-09-21-01-34-52-263425
REM CASTEP 20.1 from code version af48c487+ pr-geom-scf-spinfix Tue Jun 2 15:39:59 2020 +0100
REM Functional Perdew Burke Ernzerhof Relativity Koelling-Harmon Dispersion off
REM Cut-off 340.0000 eV Grid scale 1.7500 Gmax 16.5316 1/A FBSC none
REM MP grid 3 3 5 Offset 0.000 0.000 0.000 No. kpts 12 Spacing 0.07
REM Total runtime: 4036.32 s
REM Overall efficiency: 95.1429 %
REM
REM
REM
REM compiler GCC version 4.9.2
REM options -cpp -iprefix /lustre/shared/ucl/apps/gcc/4.9.2/bin/../lib/gcc/x86_64-unknown-linux-gnu/4.9.2/ -mtune=corei7 -march=x86-64 -g -Og
REM COMMAND_LINE
REM seed -530734755 1726400138 1732664682 -1274736894 695179862 -1413604424 -1634016978 -2130629748 -111369697 -1537099758 -149621835 -2146620413
REM
REM S 3|1.8|5|6|7|30:31:32(qc=5)
REM O 2|1.5|12|13|15|20:21(qc=5)
REM Li 1|1.3|8|9|10|10U:20(qc=5)
REM Fe 3|2.2|2.0|1.0|8|9|10|40:41:32(qc=5)
REM 
CELL 1.54180    6.26516    7.03799    3.47348   90.00000   90.00000  116.42947
LATT -1
SFAC Li O  S  Fe 
Li     1  0.3349520000000 -0.3300960000000  0.1267420000000 1.0  -0.02
Li     1 -0.3349520000000  0.3300960000000  0.1267420000000 1.0  -0.02
O      2 -0.3928740000000  0.2142520000000 -0.3726300000000 1.0   0.17
O      2  0.3928740000000 -0.2142520000000 -0.3726300000000 1.0   0.17
S      3 -0.1182580000000 -0.2365160000000  0.6296490000000 1.0   0.00
S      3  0.1182580000000  0.2365160000000  0.6296490000000 1.0   0.00
Fe     4  0.2892540000000 -0.0000000000000 -0.3734570000000 1.0   2.52
Fe     4 -0.2892540000000 -0.0000000000000 -0.3734570000000 1.0   2.52
Fe     4 -0.0000000000000 -0.0000000000000  0.1289400000000 1.0   2.24
END
