TITL LFSO-Li2Fe2SO2-200913-004348-4a7ba9 -0.0449 193.332835 -3.30339071E+003 6.34799 6.41647 7 (Fmmm) n - 1
REM
REM Run started: Sun, 13 Sep 2020 03:27:48 +0100 in /lustre/scratch/uccabz1/launch_tmp/launcher_2020-09-12-23-43-46-351832
REM CASTEP 20.1 from code version af48c487+ pr-geom-scf-spinfix Tue Jun 2 15:39:59 2020 +0100
REM Functional Perdew Burke Ernzerhof Relativity Koelling-Harmon Dispersion off
REM Cut-off 340.0000 eV Grid scale 1.7500 Gmax 16.5316 1/A FBSC none
REM MP grid 4 4 2 Offset 0.000 0.000 0.000 No. kpts 10 Spacing 0.07
REM Total runtime: 11343.6 s
REM Overall efficiency: 75.3333 %
REM
REM
REM
REM compiler GCC version 4.9.2
REM options -cpp -iprefix /lustre/shared/ucl/apps/gcc/4.9.2/bin/../lib/gcc/x86_64-unknown-linux-gnu/4.9.2/ -mtune=corei7 -march=x86-64 -g -Og
REM COMMAND_LINE
REM seed -928182920 1741205242 -2067497371 -1268897615 -311428680 -1896973190 -1889435258 1068105271 -155108957 -1481061154 663073624 1850089835
REM
REM S 3|1.8|5|6|7|30:31:32(qc=5)
REM O 2|1.5|12|13|15|20:21(qc=5)
REM Li 1|1.3|8|9|10|10U:20(qc=5)
REM Fe 3|2.2|2.0|1.0|8|9|10|40:41:32(qc=5)
REM 
CELL 1.54180    4.00270    4.00270   13.00513   95.89015   95.89015  109.45989
LATT -1
SFAC Li O  S  Fe 
Li     1 -0.1670330000000  0.1670330000000  0.0000000000000 1.0   0.00
Li     1  0.1670330000000 -0.1670330000000  0.0000000000000 1.0   0.00
O      2 -0.2799060000000  0.7200940000000  0.4401880000000 1.0   0.32
O      2  0.2799060000000 -0.7200940000000 -0.4401880000000 1.0   0.32
S      3 -0.5000000000000  0.5000000000000  0.0000000000000 1.0  -0.00
Fe     4  0.0000000000000  0.5000000000000  0.5000000000000 1.0   2.85
Fe     4  0.5000000000000  0.0000000000000 -0.5000000000000 1.0   2.85
END
