TITL LFSO-LiFeSO-200921-192149-c3da4a -0.0302 649.902034 -3610.651995705 5.10203 5.85768 8 (C2) n - 1
REM
REM Run started: Tue, 22 Sep 2020 05:05:56 +0100 in /lustre/scratch/uccabz1/launch_tmp/launcher_2020-09-21-18-21-48-163806
REM CASTEP 20.1 from code version af48c487+ pr-geom-scf-spinfix Tue Jun 2 15:39:59 2020 +0100
REM Functional Perdew Burke Ernzerhof Relativity Koelling-Harmon Dispersion off
REM Cut-off 340.0000 eV Grid scale 1.7500 Gmax 16.5316 1/A FBSC none
REM MP grid 4 3 3 Offset 0.000 0.000 0.000 No. kpts 12 Spacing 0.07
REM Total runtime: 35034.9 s
REM Overall efficiency: 97 %
REM
REM
REM
REM compiler GCC version 4.9.2
REM options -cpp -iprefix /lustre/shared/ucl/apps/gcc/4.9.2/bin/../lib/gcc/x86_64-unknown-linux-gnu/4.9.2/ -mtune=corei7 -march=x86-64 -g -Og
REM COMMAND_LINE
REM seed -125134624 1775032211 -270323904 -2125617485 -377514161 -1578513050 -2075386476 945783827 783328004 1985309639 341417137 -827745532
REM
REM S 3|1.8|5|6|7|30:31:32(qc=5)
REM O 2|1.5|12|13|15|20:21(qc=5)
REM Li 1|1.3|8|9|10|10U:20(qc=5)
REM Fe 3|2.2|2.0|1.0|8|9|10|40:41:32(qc=5)
REM 
CELL 1.54180    5.92893   20.38543   20.38543  157.00484   98.45474   98.45474
LATT -1
SFAC Li O  S  Fe 
Li     1  0.1955570000000 -0.0091620000000  0.0126100000000 1.0  -0.02
Li     1 -0.1955570000000 -0.0126100000000  0.0091620000000 1.0  -0.02
O      2  0.2583790000000  0.2470870000000  0.2729530000000 1.0   0.17
O      2 -0.2583790000000 -0.2729530000000 -0.2470870000000 1.0   0.17
S      3  0.2403980000000 -0.3000720000000 -0.2227490000000 1.0   0.00
S      3 -0.2403980000000  0.2227490000000  0.3000720000000 1.0   0.00
Fe     4 -0.2843950000000  0.4795660000000 -0.4781220000000 1.0   2.36
Fe     4  0.2843950000000  0.4781220000000 -0.4795660000000 1.0   2.36
END
