TITL LFSO-Li3FeSO2-200911-151725-e2d506 0.0041 194.631446 -5.28517180E+003 -1.98392 7.72063 14 (R3) n - 1
REM
REM Run started: Fri, 11 Sep 2020 19:14:51 +0100 in /lustre/scratch/uccabz1/launch_tmp/launcher_2020-09-11-14-17-23-648310
REM CASTEP 20.1 from code version af48c487+ pr-geom-scf-spinfix Tue Jun 2 15:39:59 2020 +0100
REM Functional Perdew Burke Ernzerhof Relativity Koelling-Harmon Dispersion off
REM Cut-off 340.0000 eV Grid scale 1.7500 Gmax 16.5316 1/A FBSC none
REM MP grid 3 3 3 Offset 0.000 0.000 0.000 No. kpts 6 Spacing 0.07
REM Total runtime: 16351.7 s
REM Overall efficiency: 97.4286 %
REM
REM
REM
REM compiler GCC version 4.9.2
REM options -cpp -iprefix /lustre/shared/ucl/apps/gcc/4.9.2/bin/../lib/gcc/x86_64-unknown-linux-gnu/4.9.2/ -mtune=corei7 -march=x86-64 -g -Og
REM COMMAND_LINE
REM seed -1730943639 1477955662 1835165633 692351352 -1548787083 -173438061 587396334 -842205989 -1691033576 -2076701492 -1199516619 392832282
REM
REM S 3|1.8|5|6|7|30:31:32(qc=5)
REM O 2|1.5|12|13|15|20:21(qc=5)
REM Li 1|1.3|8|9|10|10U:20(qc=5)
REM Fe 3|2.2|2.0|1.0|8|9|10|40:41:32(qc=5)
REM 
CELL 1.54180    7.50264    7.50264    7.50264   45.34225   45.34225   45.34225
LATT -1
SFAC Li O  S  Fe 
Li     1  0.4719700000000 -0.0913270000000  0.4419140000000 1.0   0.04
Li     1 -0.0913270000000  0.4419140000000  0.4719700000000 1.0   0.04
Li     1  0.4419140000000  0.4719700000000 -0.0913270000000 1.0   0.04
Li     1 -0.5551360000000  0.1410540000000 -0.2228190000000 1.0   0.02
Li     1  0.1410540000000 -0.2228190000000 -0.5551360000000 1.0   0.02
Li     1 -0.2228190000000 -0.5551360000000  0.1410540000000 1.0   0.02
O      2 -0.2600800000000 -0.3128840000000  0.2193860000000 1.0   0.19
O      2 -0.3128840000000  0.2193860000000 -0.2600800000000 1.0   0.19
O      2  0.2193860000000 -0.2600800000000 -0.3128840000000 1.0   0.19
O      2  0.1103540000000  0.1103540000000  0.1103540000000 1.0  -0.39
S      3 -0.2946680000000 -0.2946680000000 -0.2946680000000 1.0  -0.42
S      3  0.3562930000000  0.3562930000000  0.3562930000000 1.0  -0.36
Fe     4  0.0229020000000  0.0229020000000  0.0229020000000 1.0  -3.80
Fe     4 -0.1069010000000 -0.1069010000000 -0.1069010000000 1.0   2.25
END
