TITL LFSO-Li2Fe2SO2-200912-222837-cd9dff -0.0078 383.911017 -9.92067306E+003 20.0000 20.4964 21 (R3) n - 1
REM
REM Run started: Sun, 13 Sep 2020 11:45:05 +0100 in /lustre/scratch/uccabz1/launch_tmp/launcher_2020-09-12-21-28-35-711854
REM CASTEP 20.1 from code version af48c487+ pr-geom-scf-spinfix Tue Jun 2 15:39:59 2020 +0100
REM Functional Perdew Burke Ernzerhof Relativity Koelling-Harmon Dispersion off
REM Cut-off 340.0000 eV Grid scale 1.7500 Gmax 16.5316 1/A FBSC none
REM MP grid 3 3 3 Offset 0.000 0.000 0.000 No. kpts 6 Spacing 0.07
REM Total runtime: 52935.9 s
REM Overall efficiency: 98.7 %
REM
REM
REM
REM compiler GCC version 4.9.2
REM options -cpp -iprefix /lustre/shared/ucl/apps/gcc/4.9.2/bin/../lib/gcc/x86_64-unknown-linux-gnu/4.9.2/ -mtune=corei7 -march=x86-64 -g -Og
REM COMMAND_LINE
REM seed 2039348522 -2099116687 134542392 1666634822 -1987772250 877023582 -1053065231 744520359 1924717749 -538551804 110544840 -331606831
REM
REM S 3|1.8|5|6|7|30:31:32(qc=5)
REM O 2|1.5|12|13|15|20:21(qc=5)
REM Li 1|1.3|8|9|10|10U:20(qc=5)
REM Fe 3|2.2|2.0|1.0|8|9|10|40:41:32(qc=5)
REM 
CELL 1.54180    8.81127    8.81127    7.64733   54.82323   54.82323   60.00000
LATT -1
SFAC Li O  S  Fe 
Li     1 -0.6775570000000 -0.4826270000000  0.1545090000000 1.0   0.02
Li     1  0.0056750000000 -0.6775570000000  0.1545090000000 1.0   0.02
Li     1 -0.4826270000000  0.0056750000000  0.1545090000000 1.0   0.02
Li     1 -0.2372120000000  0.1789950000000 -0.2777040000000 1.0  -0.01
Li     1  0.3359200000000 -0.2372120000000 -0.2777040000000 1.0  -0.01
Li     1  0.1789950000000  0.3359200000000 -0.2777040000000 1.0  -0.01
O      2  0.3275020000000  0.4775940000000  0.4265700000000 1.0   0.31
O      2 -0.2316660000000  0.3275020000000  0.4265700000000 1.0   0.31
O      2  0.4775940000000 -0.2316660000000  0.4265700000000 1.0   0.31
O      2 -0.0502730000000 -0.5193470000000 -0.1327040000000 1.0   0.17
O      2 -0.2976750000000 -0.0502730000000 -0.1327040000000 1.0   0.17
O      2 -0.5193470000000 -0.2976750000000 -0.1327040000000 1.0   0.17
S      3 -0.3587670000000  0.2514610000000  0.0745800000000 1.0   0.18
S      3  0.0327270000000 -0.3587670000000  0.0745800000000 1.0   0.18
S      3  0.2514610000000  0.0327270000000  0.0745800000000 1.0   0.18
Fe     4 -0.4042600000000  0.3562530000000  0.3310950000000 1.0   3.52
Fe     4 -0.2830880000000 -0.4042600000000  0.3310950000000 1.0   3.52
Fe     4  0.3562530000000 -0.2830880000000  0.3310950000000 1.0   3.52
Fe     4  0.5375950000000 -0.1436860000000 -0.1015530000000 1.0   2.47
Fe     4 -0.2923560000000  0.5375950000000 -0.1015530000000 1.0   2.47
Fe     4 -0.1436860000000 -0.2923560000000 -0.1015530000000 1.0   2.47
END
