TITL LFSO-Li4Fe3SO4-200930-141937-a43eb5 0.0285 172.925152 -5.44460352E+003 11.9646 12.1494 12 (P-4) n - 1
REM
REM Run started: Wed, 30 Sep 2020 16:35:08 +0100 in /lustre/scratch/uccabz1/launch_tmp/launcher_2020-09-30-13-19-35-576530
REM CASTEP 20.1 from code version af48c487+ pr-geom-scf-spinfix Tue Jun 2 15:39:59 2020 +0100
REM Functional Perdew Burke Ernzerhof Relativity Koelling-Harmon Dispersion off
REM Cut-off 340.0000 eV Grid scale 1.7500 Gmax 16.5316 1/A FBSC none
REM MP grid 4 3 3 Offset 0.000 0.000 0.000 No. kpts 6 Spacing 0.07
REM Total runtime: 8261.5 s
REM Overall efficiency: 94.125 %
REM
REM
REM
REM compiler GCC version 4.9.2
REM options -cpp -iprefix /lustre/shared/ucl/apps/gcc/4.9.2/bin/../lib/gcc/x86_64-unknown-linux-gnu/4.9.2/ -mtune=corei7 -march=x86-64 -g -Og
REM COMMAND_LINE
REM seed 1397785409 1819781707 -415275678 287709008 -81720897 1356847472 -1605418703 1227985895 1146111045 1208400155 -629167306 -769835198
REM
REM S 3|1.8|5|6|7|30:31:32(qc=5)
REM O 2|1.5|12|13|15|20:21(qc=5)
REM Li 1|1.3|8|9|10|10U:20(qc=5)
REM Fe 3|2.2|2.0|1.0|8|9|10|40:41:32(qc=5)
REM 
CELL 1.54180    3.73169    6.80732    6.80732   90.00000   90.00000   90.00000
LATT -1
SFAC Li O  S  Fe 
Li     1  0.4740090000000 -0.2612290000000  0.2357430000000 1.0  -0.10
Li     1  0.4740090000000  0.2612290000000 -0.2357430000000 1.0  -0.10
Li     1 -0.4740090000000  0.2357430000000  0.2612290000000 1.0  -0.10
Li     1 -0.4740090000000 -0.2357430000000 -0.2612290000000 1.0  -0.10
O      2 -0.2498890000000 -0.4950950000000 -0.2561820000000 1.0   0.30
O      2 -0.2498890000000  0.4950950000000  0.2561820000000 1.0   0.30
O      2  0.2498890000000 -0.2561820000000  0.4950950000000 1.0   0.30
O      2  0.2498890000000  0.2561820000000 -0.4950950000000 1.0   0.30
S      3  0.0000000000000  0.0000000000000  0.0000000000000 1.0   0.35
Fe     4 -0.1282100000000 -0.5000000000000  0.0000000000000 1.0   3.42
Fe     4  0.1282100000000 -0.0000000000000  0.5000000000000 1.0   3.42
Fe     4  0.0000000000000  0.5000000000000 -0.5000000000000 1.0   3.95
END
