TITL LFSO-Li4Fe2SO3-200910-200539-365047 0.4433 310.446741 -8.28913110E+003 15.9212 16.1462 20 (C2) n - 1
REM
REM Run started: Fri, 11 Sep 2020 07:56:15 +0100 in /lustre/scratch/uccabz1/launch_tmp/launcher_2020-09-10-19-05-37-378142
REM CASTEP 20.1 from code version af48c487+ pr-geom-scf-spinfix Tue Jun 2 15:39:59 2020 +0100
REM Functional Perdew Burke Ernzerhof Relativity Koelling-Harmon Dispersion off
REM Cut-off 340.0000 eV Grid scale 1.7500 Gmax 16.5316 1/A FBSC none
REM MP grid 4 2 2 Offset 0.000 0.000 0.000 No. kpts 6 Spacing 0.07
REM Total runtime: 47524.6 s
REM Overall efficiency: 90.5 %
REM
REM
REM
REM compiler GCC version 4.9.2
REM options -cpp -iprefix /lustre/shared/ucl/apps/gcc/4.9.2/bin/../lib/gcc/x86_64-unknown-linux-gnu/4.9.2/ -mtune=corei7 -march=x86-64 -g -Og
REM COMMAND_LINE
REM seed -1208666519 -897124289 2002731243 2021051311 -1768795046 1501354206 -736429200 1195830315 1936852459 -1784742561 2018232972 1955175953
REM
REM S 3|1.8|5|6|7|30:31:32(qc=5)
REM O 2|1.5|12|13|15|20:21(qc=5)
REM Li 1|1.3|8|9|10|10U:20(qc=5)
REM Fe 3|2.2|2.0|1.0|8|9|10|40:41:32(qc=5)
REM 
CELL 1.54180    3.61022   10.24633   10.24633   56.79607  100.35848  100.35848
LATT -1
SFAC Li O  S  Fe 
Li     1  0.5237410000000  0.1809310000000  0.3774340000000 1.0  -0.02
Li     1 -0.5237410000000 -0.3774340000000 -0.1809310000000 1.0  -0.02
Li     1  0.2970770000000 -0.0310050000000  0.1433600000000 1.0  -0.03
Li     1 -0.2970770000000 -0.1433600000000  0.0310050000000 1.0  -0.03
Li     1 -0.1248390000000  0.5477590000000 -0.3006410000000 1.0   0.04
Li     1  0.1248390000000  0.3006410000000 -0.5477590000000 1.0   0.04
Li     1  0.1654190000000 -0.1265590000000 -0.4625490000000 1.0  -0.02
Li     1 -0.1654190000000  0.4625490000000  0.1265590000000 1.0  -0.02
O      2 -0.0039900000000 -0.2871730000000 -0.2726340000000 1.0   0.17
O      2  0.0039900000000  0.2726340000000  0.2871730000000 1.0   0.17
O      2 -0.4068390000000 -0.3442980000000 -0.0112290000000 1.0   0.29
O      2  0.4068390000000  0.0112290000000  0.3442980000000 1.0   0.29
O      2 -0.1906580000000  0.0243650000000  0.1045690000000 1.0   0.28
O      2  0.1906580000000 -0.1045690000000 -0.0243650000000 1.0   0.28
S      3  0.3411630000000  0.3802730000000 -0.1953870000000 1.0   0.21
S      3 -0.3411630000000  0.1953870000000 -0.3802730000000 1.0   0.21
Fe     4  0.0981390000000 -0.2463240000000 -0.1051340000000 1.0   3.71
Fe     4 -0.0981390000000  0.1051340000000  0.2463240000000 1.0   3.71
Fe     4  0.1989270000000  0.0953390000000 -0.2063220000000 1.0   3.34
Fe     4 -0.1989270000000  0.2063220000000 -0.0953390000000 1.0   3.34
END
