TITL LFSO-Li2Fe3S2O2-200921-011210-805b67 0.0340 277.517944 -8.94791761E+003 -22.0894 22.4062 18 (P3) n - 1
REM
REM Run started: Mon, 21 Sep 2020 09:06:44 +0100 in /lustre/scratch/uccabz1/launch_tmp/launcher_2020-09-21-00-12-08-853953
REM CASTEP 20.1 from code version af48c487+ pr-geom-scf-spinfix Tue Jun 2 15:39:59 2020 +0100
REM Functional Perdew Burke Ernzerhof Relativity Koelling-Harmon Dispersion off
REM Cut-off 340.0000 eV Grid scale 1.7500 Gmax 16.5316 1/A FBSC none
REM MP grid 3 3 3 Offset 0.000 0.000 0.000 No. kpts 8 Spacing 0.07
REM Total runtime: 28991.2 s
REM Overall efficiency: 98.2 %
REM
REM
REM
REM compiler GCC version 4.9.2
REM options -cpp -iprefix /lustre/shared/ucl/apps/gcc/4.9.2/bin/../lib/gcc/x86_64-unknown-linux-gnu/4.9.2/ -mtune=corei7 -march=x86-64 -g -Og
REM COMMAND_LINE
REM seed 1392977092 213724719 1798290049 -1133788889 -1244125046 -1815664551 1402163632 -1040074988 -1776309517 -814722647 34120941 -1296672157
REM
REM S 3|1.8|5|6|7|30:31:32(qc=5)
REM O 2|1.5|12|13|15|20:21(qc=5)
REM Li 1|1.3|8|9|10|10U:20(qc=5)
REM Fe 3|2.2|2.0|1.0|8|9|10|40:41:32(qc=5)
REM 
CELL 1.54180    5.74354    7.46948    7.46948  120.00000   90.00000   90.00000
LATT -1
SFAC Li O  S  Fe 
Li     1 -0.1390330000000 -0.5515380000000  0.4265850000000 1.0   0.05
Li     1 -0.1390330000000 -0.0218770000000  0.5515380000000 1.0   0.05
Li     1 -0.1390330000000 -0.4265850000000  0.0218770000000 1.0   0.05
Li     1  0.0751030000000 -0.3333330000000  0.3333330000000 1.0   0.02
O      2 -0.0568670000000 -0.2625230000000 -0.4066300000000 1.0  -0.24
O      2 -0.0568670000000 -0.1441070000000  0.2625230000000 1.0  -0.24
O      2 -0.0568670000000  0.4066300000000  0.1441070000000 1.0  -0.24
O      2 -0.0505230000000 -0.0000000000000  0.0000000000000 1.0  -0.44
S      3  0.4422330000000  0.0176380000000 -0.2798700000000 1.0  -0.25
S      3  0.4422330000000 -0.2975080000000 -0.0176380000000 1.0  -0.25
S      3  0.4422330000000  0.2798700000000  0.2975080000000 1.0  -0.25
S      3 -0.0766650000000  0.3333330000000 -0.3333330000000 1.0  -0.06
Fe     4  0.1962170000000 -0.0122370000000  0.1953810000000 1.0  -3.39
Fe     4  0.1962170000000  0.2076180000000  0.0122370000000 1.0  -3.39
Fe     4  0.1962170000000 -0.1953810000000 -0.2076180000000 1.0  -3.39
Fe     4 -0.3049110000000 -0.1919670000000 -0.2032850000000 1.0  -3.38
Fe     4 -0.3049110000000 -0.0113170000000  0.1919670000000 1.0  -3.38
Fe     4 -0.3049110000000  0.2032850000000  0.0113170000000 1.0  -3.38
END
