TITL LFSO-Li2Fe4S2O3-200912-133440-7676df -0.0425 304.891460 -1.15455828E+004 -23.4108 24.1375 22 (P21/m) n - 1
REM
REM Run started: Sat, 12 Sep 2020 18:35:29 +0100 in /lustre/scratch/uccabz1/launch_tmp/launcher_2020-09-12-12-34-38-855631
REM CASTEP 20.1 from code version af48c487+ pr-geom-scf-spinfix Tue Jun 2 15:39:59 2020 +0100
REM Functional Perdew Burke Ernzerhof Relativity Koelling-Harmon Dispersion off
REM Cut-off 340.0000 eV Grid scale 1.7500 Gmax 16.5316 1/A FBSC none
REM MP grid 5 2 2 Offset 0.000 0.000 0.000 No. kpts 5 Spacing 0.07
REM Total runtime: 19337.5 s
REM Overall efficiency: 88.5 %
REM
REM
REM
REM compiler GCC version 4.9.2
REM options -cpp -iprefix /lustre/shared/ucl/apps/gcc/4.9.2/bin/../lib/gcc/x86_64-unknown-linux-gnu/4.9.2/ -mtune=corei7 -march=x86-64 -g -Og
REM COMMAND_LINE
REM seed -2030755144 -322547541 -1400833402 1078114306 1791470064 19737896 -525885347 622238604 -1463511150 -992916575 -1195712458 -1791327254
REM
REM S 3|1.8|5|6|7|30:31:32(qc=5)
REM O 2|1.5|12|13|15|20:21(qc=5)
REM Li 1|1.3|8|9|10|10U:20(qc=5)
REM Fe 3|2.2|2.0|1.0|8|9|10|40:41:32(qc=5)
REM 
CELL 1.54180    3.20124    9.08616   11.14208   90.00000   90.00000  109.81979
LATT -1
SFAC Li O  S  Fe 
Li     1  0.6798470000000  0.4252250000000 -0.1034650000000 1.0  -0.01
Li     1 -0.6798470000000 -0.4252250000000  0.3965350000000 1.0  -0.01
Li     1 -0.6798470000000 -0.4252250000000  0.1034650000000 1.0  -0.01
Li     1  0.6798470000000  0.4252250000000 -0.3965350000000 1.0  -0.01
O      2  0.0777300000000  0.3219500000000 -0.0986280000000 1.0  -0.25
O      2 -0.0777300000000 -0.3219500000000  0.4013720000000 1.0  -0.25
O      2 -0.0777300000000 -0.3219500000000  0.0986280000000 1.0  -0.25
O      2  0.0777300000000  0.3219500000000 -0.4013720000000 1.0  -0.25
O      2  0.0000000000000  0.0000000000000 -0.0000000000000 1.0  -0.22
O      2  0.0000000000000  0.0000000000000  0.5000000000000 1.0  -0.22
S      3  0.4491310000000  0.2982690000000  0.3432180000000 1.0  -0.05
S      3 -0.4491310000000 -0.2982690000000 -0.1567820000000 1.0  -0.05
S      3 -0.4491310000000 -0.2982690000000 -0.3432180000000 1.0  -0.05
S      3  0.4491310000000  0.2982690000000  0.1567820000000 1.0  -0.05
Fe     4  0.2568390000000 -0.0946190000000 -0.3673580000000 1.0  -2.89
Fe     4 -0.2568390000000  0.0946190000000  0.1326420000000 1.0  -2.89
Fe     4 -0.2568390000000  0.0946190000000  0.3673580000000 1.0  -2.89
Fe     4  0.2568390000000 -0.0946190000000 -0.1326420000000 1.0  -2.89
Fe     4  0.0232700000000 -0.1282100000000  0.1443600000000 1.0  -2.55
Fe     4 -0.0232700000000  0.1282100000000 -0.3556400000000 1.0  -2.55
Fe     4 -0.0232700000000  0.1282100000000 -0.1443600000000 1.0  -2.55
Fe     4  0.0232700000000 -0.1282100000000  0.3556400000000 1.0  -2.55
END
