TITL LFSO-Li6FeSO3-200909-233400-29b368 -0.0558 132.092453 -3.67921190E+003 3.99002 4.17160 11 (Fmm2) n - 1
REM
REM Run started: Thu, 10 Sep 2020 01:51:23 +0100 in /lustre/scratch/uccabz1/launch_tmp/launcher_2020-09-09-22-33-58-593278
REM CASTEP 20.1 from code version af48c487+ pr-geom-scf-spinfix Tue Jun 2 15:39:59 2020 +0100
REM Functional Perdew Burke Ernzerhof Relativity Koelling-Harmon Dispersion off
REM Cut-off 340.0000 eV Grid scale 1.7500 Gmax 16.5316 1/A FBSC none
REM MP grid 4 4 3 Offset 0.000 0.000 0.000 No. kpts 16 Spacing 0.07
REM Total runtime: 8415.42 s
REM Overall efficiency: 93.4167 %
REM
REM
REM
REM compiler GCC version 4.9.2
REM options -cpp -iprefix /lustre/shared/ucl/apps/gcc/4.9.2/bin/../lib/gcc/x86_64-unknown-linux-gnu/4.9.2/ -mtune=corei7 -march=x86-64 -g -Og
REM COMMAND_LINE
REM seed -435532243 981758539 -1672151245 695956614 -48514504 1929353083 -1271127468 626209686 1096309413 99977175 -382646641 364063913
REM
REM S 3|1.8|5|6|7|30:31:32(qc=5)
REM O 2|1.5|12|13|15|20:21(qc=5)
REM Li 1|1.3|8|9|10|10U:20(qc=5)
REM Fe 3|2.2|2.0|1.0|8|9|10|40:41:32(qc=5)
REM 
CELL 1.54180    5.25905    5.25905    6.00836  114.79292  114.79292   92.39708
LATT -1
SFAC Li O  S  Fe 
Li     1 -0.3072920000000  0.2384960000000  0.2500430000000 1.0  -0.03
Li     1 -0.2384960000000  0.3072920000000 -0.2500430000000 1.0  -0.03
Li     1  0.0115470000000 -0.4426650000000  0.2500430000000 1.0  -0.03
Li     1  0.4426650000000 -0.0115470000000 -0.2500430000000 1.0  -0.03
Li     1  0.2126590000000  0.2987670000000 -0.4885740000000 1.0  -0.00
Li     1 -0.2987670000000 -0.2126590000000  0.4885740000000 1.0  -0.00
O      2 -0.0100400000000  0.5912860000000  0.5812460000000 1.0   0.14
O      2 -0.5912860000000  0.0100400000000 -0.5812460000000 1.0   0.14
O      2 -0.1043660000000  0.1043660000000  0.0000000000000 1.0   0.17
S      3  0.4881090000000 -0.4881090000000  0.0000000000000 1.0   0.08
Fe     4  0.1553770000000 -0.1553770000000  0.0000000000000 1.0   3.59
END
