TITL LFSO-Li3Fe3S5O-200928-153407-79a544 -0.0661 418.819944 -1.02958270E+004 6.03090 6.66374 24 (R3) n - 1
REM
REM Run started: Tue, 29 Sep 2020 12:57:06 +0100 in /lustre/scratch/uccabz1/launch_tmp/launcher_2020-09-28-14-34-06-119500
REM CASTEP 20.1 from code version af48c487+ pr-geom-scf-spinfix Tue Jun 2 15:39:59 2020 +0100
REM Functional Perdew Burke Ernzerhof Relativity Koelling-Harmon Dispersion off
REM Cut-off 340.0000 eV Grid scale 1.7500 Gmax 16.5316 1/A FBSC none
REM MP grid 2 2 2 Offset 0.000 0.000 0.000 No. kpts 2 Spacing 0.07
REM Total runtime: 79534.7 s
REM Overall efficiency: 86.0833 %
REM
REM
REM
REM compiler GCC version 4.9.2
REM options -cpp -iprefix /lustre/shared/ucl/apps/gcc/4.9.2/bin/../lib/gcc/x86_64-unknown-linux-gnu/4.9.2/ -mtune=corei7 -march=x86-64 -g -Og
REM COMMAND_LINE
REM seed 529895537 -1902969825 1691420304 114661029 -28005050 289304485 988033362 -1707357751 -676886651 -1617860374 -1573726462 1002841105
REM
REM S 3|1.8|5|6|7|30:31:32(qc=5)
REM O 2|1.5|12|13|15|20:21(qc=5)
REM Li 1|1.3|8|9|10|10U:20(qc=5)
REM Fe 3|2.2|2.0|1.0|8|9|10|40:41:32(qc=5)
REM 
CELL 1.54180    7.78748    7.78748    7.78748   72.65961   72.65961   72.65961
LATT -1
SFAC Li O  S  Fe 
Li     1  0.0441320000000  0.3989710000000  0.2999570000000 1.0   0.01
Li     1  0.3989710000000  0.2999570000000  0.0441320000000 1.0   0.01
Li     1  0.2999570000000  0.0441320000000  0.3989710000000 1.0   0.01
Li     1  0.3342370000000 -0.4352460000000  0.2477680000000 1.0   0.01
Li     1 -0.4352460000000  0.2477680000000  0.3342370000000 1.0   0.01
Li     1  0.2477680000000  0.3342370000000 -0.4352460000000 1.0   0.01
O      2 -0.3045470000000 -0.3045470000000 -0.3045470000000 1.0   0.03
O      2  0.3036490000000  0.3036490000000  0.3036490000000 1.0   0.00
S      3 -0.2994020000000 -0.6659810000000  0.0073040000000 1.0   0.07
S      3 -0.6659810000000  0.0073040000000 -0.2994020000000 1.0   0.07
S      3  0.0073040000000 -0.2994020000000 -0.6659810000000 1.0   0.07
S      3  0.0113160000000 -0.4023490000000 -0.0915650000000 1.0  -0.02
S      3 -0.4023490000000 -0.0915650000000  0.0113160000000 1.0  -0.02
S      3 -0.0915650000000  0.0113160000000 -0.4023490000000 1.0  -0.02
S      3 -0.4423450000000  0.2603460000000 -0.3175750000000 1.0   0.04
S      3  0.2603460000000 -0.3175750000000 -0.4423450000000 1.0   0.04
S      3 -0.3175750000000 -0.4423450000000  0.2603460000000 1.0   0.04
S      3 -0.0027320000000 -0.0027320000000 -0.0027320000000 1.0   0.02
Fe     4  0.1113320000000 -0.1465940000000 -0.2342160000000 1.0   1.21
Fe     4 -0.1465940000000 -0.2342160000000  0.1113320000000 1.0   1.21
Fe     4 -0.2342160000000  0.1113320000000 -0.1465940000000 1.0   1.21
Fe     4 -0.2838160000000 -0.3723200000000 -0.0589430000000 1.0   0.67
Fe     4 -0.3723200000000 -0.0589430000000 -0.2838160000000 1.0   0.67
Fe     4 -0.0589430000000 -0.2838160000000 -0.3723200000000 1.0   0.67
END
