TITL LFSO-Li2FeSO-200912-020830-8aab82 -0.0190 146.777408 -4.00598486E+003 -8.16485 8.25821 10 (R3m) n - 1
REM
REM Run started: Sat, 12 Sep 2020 05:25:09 +0100 in /lustre/scratch/uccabz1/launch_tmp/launcher_2020-09-12-01-08-28-957488
REM CASTEP 20.1 from code version af48c487+ pr-geom-scf-spinfix Tue Jun 2 15:39:59 2020 +0100
REM Functional Perdew Burke Ernzerhof Relativity Koelling-Harmon Dispersion off
REM Cut-off 340.0000 eV Grid scale 1.7500 Gmax 16.5316 1/A FBSC none
REM MP grid 4 4 3 Offset 0.000 0.000 0.000 No. kpts 24 Spacing 0.07
REM Total runtime: 11872.6 s
REM Overall efficiency: 95.1429 %
REM
REM
REM
REM compiler GCC version 4.9.2
REM options -cpp -iprefix /lustre/shared/ucl/apps/gcc/4.9.2/bin/../lib/gcc/x86_64-unknown-linux-gnu/4.9.2/ -mtune=corei7 -march=x86-64 -g -Og
REM COMMAND_LINE
REM seed 1050327774 1297399643 1297590387 1415582453 1163877322 -1524831786 -1177774953 1075537140 298242543 993098586 1263005331 -351276281
REM
REM S 3|1.8|5|6|7|30:31:32(qc=5)
REM O 2|1.5|12|13|15|20:21(qc=5)
REM Li 1|1.3|8|9|10|10U:20(qc=5)
REM Fe 3|2.2|2.0|1.0|8|9|10|40:41:32(qc=5)
REM 
CELL 1.54180    4.87907    4.87907    7.65659   71.42055   71.42055   60.00000
LATT -1
SFAC Li O  S  Fe 
Li     1  0.2940700000000 -0.2102930000000  0.1304810000000 1.0   0.03
Li     1 -0.2142570000000  0.2940700000000  0.1304810000000 1.0   0.03
Li     1 -0.2102930000000 -0.2142570000000  0.1304810000000 1.0   0.03
Li     1  0.4841520000000  0.4841520000000 -1.4524570000000 1.0   0.15
O      2 -0.4333350000000 -0.4333350000000  1.3000060000000 1.0  -0.25
O      2  0.0107170000000  0.0107170000000 -0.0321510000000 1.0  -0.42
S      3  0.3093560000000  0.3093560000000 -0.9280670000000 1.0  -0.38
S      3 -0.1949120000000 -0.1949120000000  0.5847370000000 1.0  -0.19
Fe     4  0.0930490000000  0.0930490000000 -0.2791470000000 1.0  -3.57
Fe     4  0.2068080000000  0.2068080000000 -0.6204240000000 1.0  -3.58
END
