TITL LFSO-Li3FeS2O-200911-183456-5c0098 0.2150 442.498418 -7.51414623E+003 -7.66420 8.92332 21 (Pmm2) n - 1
REM
REM Run started: Sat, 12 Sep 2020 11:30:13 +0100 in /lustre/scratch/uccabz1/launch_tmp/launcher_2020-09-12-09-53-23-610582
REM CASTEP 20.1 from code version af48c487+ pr-geom-scf-spinfix Tue Jun 2 15:39:59 2020 +0100
REM Functional Perdew Burke Ernzerhof Relativity Koelling-Harmon Dispersion off
REM Cut-off 340.0000 eV Grid scale 1.7500 Gmax 16.5316 1/A FBSC none
REM MP grid 4 3 1 Offset 0.000 0.000 0.000 No. kpts 4 Spacing 0.07
REM Total runtime: 56897 s
REM Overall efficiency: 87.2727 %
REM
REM
REM
REM compiler GCC version 4.9.2
REM options -cpp -iprefix /lustre/shared/ucl/apps/gcc/4.9.2/bin/../lib/gcc/x86_64-unknown-linux-gnu/4.9.2/ -mtune=corei7 -march=x86-64 -g -Og
REM COMMAND_LINE
REM seed -1131014686 -1505772929 197946062 -1070444643 1380353310 811332426 -1962790436 762174559 -500705050 735495065 833169957 -2068962656
REM
REM S 3|1.8|5|6|7|30:31:32(qc=5)
REM O 2|1.5|12|13|15|20:21(qc=5)
REM Li 1|1.3|8|9|10|10U:20(qc=5)
REM Fe 3|2.2|2.0|1.0|8|9|10|40:41:32(qc=5)
REM 
CELL 1.54180    3.81109    7.01316   16.55575   90.00000   90.00000   90.00000
LATT -1
SFAC Li O  S  Fe 
Li     1 -0.4417470000000  0.1787310000000 -0.2344060000000 1.0  -0.06
Li     1 -0.4417470000000 -0.1787310000000  0.2344060000000 1.0  -0.06
Li     1 -0.4417470000000  0.1787310000000  0.2344060000000 1.0  -0.06
Li     1 -0.4417470000000 -0.1787310000000 -0.2344060000000 1.0  -0.06
Li     1  0.1263530000000 -0.1872950000000  0.3562710000000 1.0   0.19
Li     1  0.1263530000000  0.1872950000000 -0.3562710000000 1.0   0.19
Li     1  0.1263530000000 -0.1872950000000 -0.3562710000000 1.0   0.19
Li     1  0.1263530000000  0.1872950000000  0.3562710000000 1.0   0.19
Li     1  0.0273720000000  0.5000000000000 -0.5000000000000 1.0   0.12
O      2  0.3374010000000  0.0000000000000 -0.2993450000000 1.0  -0.02
O      2  0.3374010000000  0.0000000000000  0.2993450000000 1.0  -0.02
O      2 -0.4697110000000  0.5000000000000 -0.5000000000000 1.0  -0.22
S      3 -0.1955310000000 -0.2342510000000  0.0988930000000 1.0   0.01
S      3 -0.1955310000000  0.2342510000000 -0.0988930000000 1.0   0.01
S      3 -0.1955310000000 -0.2342510000000 -0.0988930000000 1.0   0.01
S      3 -0.1955310000000  0.2342510000000  0.0988930000000 1.0   0.01
S      3  0.4530160000000 -0.2674940000000  0.0000000000000 1.0  -0.08
S      3  0.4530160000000  0.2674940000000  0.0000000000000 1.0  -0.08
Fe     4  0.5298240000000 -0.5000000000000 -0.3886480000000 1.0  -3.38
Fe     4  0.5298240000000  0.5000000000000  0.3886480000000 1.0  -3.38
Fe     4 -0.2723970000000  0.0000000000000  0.0000000000000 1.0  -1.16
END
