TITL LFSO-Li2Fe2SO2-200912-220300-b42f06 -0.0365 89.246799 -3.30658366E+003 8.00001 8.05378 7 (C2/m) n - 1
REM
REM Run started: Sat, 12 Sep 2020 22:47:14 +0100 in /lustre/scratch/uccabz1/launch_tmp/launcher_2020-09-12-21-02-58-658722
REM CASTEP 20.1 from code version af48c487+ pr-geom-scf-spinfix Tue Jun 2 15:39:59 2020 +0100
REM Functional Perdew Burke Ernzerhof Relativity Koelling-Harmon Dispersion off
REM Cut-off 340.0000 eV Grid scale 1.7500 Gmax 16.5316 1/A FBSC none
REM MP grid 5 5 2 Offset 0.000 0.000 0.000 No. kpts 15 Spacing 0.07
REM Total runtime: 2748.17 s
REM Overall efficiency: 92.25 %
REM
REM
REM
REM compiler GCC version 4.9.2
REM options -cpp -iprefix /lustre/shared/ucl/apps/gcc/4.9.2/bin/../lib/gcc/x86_64-unknown-linux-gnu/4.9.2/ -mtune=corei7 -march=x86-64 -g -Og
REM COMMAND_LINE
REM seed 73014738 2029562718 -305815663 -81917272 -1145205844 1739269909 320242071 365982231 -1962819291 -1294548841 -1911243050 -639345244
REM
REM S 3|1.8|5|6|7|30:31:32(qc=5)
REM O 2|1.5|12|13|15|20:21(qc=5)
REM Li 1|1.3|8|9|10|10U:20(qc=5)
REM Fe 3|2.2|2.0|1.0|8|9|10|40:41:32(qc=5)
REM 
CELL 1.54180    3.69164    3.69164    7.76120   79.01887   79.01887   59.87447
LATT -1
SFAC Li O  S  Fe 
Li     1  0.2817570000000 -0.6784670000000  0.1173630000000 1.0  -0.04
Li     1  0.6784670000000 -0.2817570000000 -0.1173630000000 1.0  -0.04
O      2  0.2163980000000  0.2677580000000  0.3616030000000 1.0   0.33
O      2 -0.2677580000000 -0.2163980000000 -0.3616030000000 1.0   0.33
S      3 -0.0213770000000  0.0213770000000  0.0000000000000 1.0   0.09
Fe     4  0.0751750000000  0.1268000000000 -0.3761210000000 1.0   3.66
Fe     4 -0.1268000000000 -0.0751750000000  0.3761210000000 1.0   3.66
END
