TITL LFSO-Li2Fe3SO3-200912-093130-44cb5d -0.3390 393.302529 -9.21218827E+003 7.78923 19.3670 18 (Amm2) n - 1
REM
REM Run started: Mon, 14 Sep 2020 00:30:51 +0100 in /lustre/scratch/uccabz1/launch_tmp/launcher_2020-09-12-10-42-26-268160
REM CASTEP 20.1 from code version af48c487+ pr-geom-scf-spinfix Tue Jun 2 15:39:59 2020 +0100
REM Functional Perdew Burke Ernzerhof Relativity Koelling-Harmon Dispersion off
REM Cut-off 340.0000 eV Grid scale 1.7500 Gmax 16.5316 1/A FBSC none
REM MP grid 4 4 1 Offset 0.000 0.000 0.000 No. kpts 6 Spacing 0.07
REM Total runtime: 128939 s
REM Overall efficiency: 97.5385 %
REM
REM
REM
REM compiler GCC version 4.9.2
REM options -cpp -iprefix /lustre/shared/ucl/apps/gcc/4.9.2/bin/../lib/gcc/x86_64-unknown-linux-gnu/4.9.2/ -mtune=corei7 -march=x86-64 -g -Og
REM COMMAND_LINE
REM seed -838593621 1901255314 115016750 1558968058 -43360654 997311276 -844804252 1904619237 -589699252 1239413104 -1292131986 1622654971
REM
REM S 3|1.8|5|6|7|30:31:32(qc=5)
REM O 2|1.5|12|13|15|20:21(qc=5)
REM Li 1|1.3|8|9|10|10U:20(qc=5)
REM Fe 3|2.2|2.0|1.0|8|9|10|40:41:32(qc=5)
REM 
CELL 1.54180    4.85809    4.85809   18.67530   90.00000   90.00000  116.83168
LATT -1
SFAC Li O  S  Fe 
Li     1  0.0652670000000 -0.2772830000000 -0.3230760000000 1.0   0.01
Li     1 -0.2772830000000  0.0652670000000  0.3230760000000 1.0   0.01
Li     1 -0.2772830000000  0.0652670000000 -0.3230760000000 1.0   0.01
Li     1  0.0652670000000 -0.2772830000000  0.3230760000000 1.0   0.01
O      2 -0.5264940000000  0.0396850000000  0.2377660000000 1.0   0.05
O      2  0.0396850000000 -0.5264940000000 -0.2377660000000 1.0   0.05
O      2  0.0396850000000 -0.5264940000000  0.2377660000000 1.0   0.05
O      2 -0.5264940000000  0.0396850000000 -0.2377660000000 1.0   0.05
O      2  0.1031920000000  0.1031920000000 -0.3417830000000 1.0  -0.22
O      2  0.1031920000000  0.1031920000000  0.3417830000000 1.0  -0.22
S      3 -0.3368750000000 -0.3368750000000  0.1211670000000 1.0   0.26
S      3 -0.3368750000000 -0.3368750000000 -0.1211670000000 1.0   0.26
Fe     4 -0.1903130000000  0.1385290000000  0.1694740000000 1.0   3.18
Fe     4  0.1385290000000 -0.1903130000000 -0.1694740000000 1.0   3.18
Fe     4  0.1385290000000 -0.1903130000000  0.1694740000000 1.0   3.18
Fe     4 -0.1903130000000  0.1385290000000 -0.1694740000000 1.0   3.18
Fe     4  0.2595390000000  0.2595390000000 -0.2543050000000 1.0  -2.61
Fe     4  0.2595390000000  0.2595390000000  0.2543050000000 1.0  -2.61
END
