TITL LFSO-Li4Fe3SO4-200930-210253-d46082 -0.0231 181.769157 -5.44626622E+003 11.9995 12.1433 12 (R3m) n - 1
REM
REM Run started: Wed, 30 Sep 2020 22:01:24 +0100 in /lustre/scratch/uccabz1/launch_tmp/launcher_2020-09-30-20-02-51-784055
REM CASTEP 20.1 from code version af48c487+ pr-geom-scf-spinfix Tue Jun 2 15:39:59 2020 +0100
REM Functional Perdew Burke Ernzerhof Relativity Koelling-Harmon Dispersion off
REM Cut-off 340.0000 eV Grid scale 1.7500 Gmax 16.5316 1/A FBSC none
REM MP grid 3 3 3 Offset 0.000 0.000 0.000 No. kpts 6 Spacing 0.07
REM Total runtime: 3695.5 s
REM Overall efficiency: 93.5 %
REM
REM
REM
REM compiler GCC version 4.9.2
REM options -cpp -iprefix /lustre/shared/ucl/apps/gcc/4.9.2/bin/../lib/gcc/x86_64-unknown-linux-gnu/4.9.2/ -mtune=corei7 -march=x86-64 -g -Og
REM COMMAND_LINE
REM seed 413003683 -117638250 -1307625833 1389902420 150448755 651322680 -647920450 -691606108 -1691965907 2083212751 1099018583 -1375079663
REM
REM S 3|1.8|5|6|7|30:31:32(qc=5)
REM O 2|1.5|12|13|15|20:21(qc=5)
REM Li 1|1.3|8|9|10|10U:20(qc=5)
REM Fe 3|2.2|2.0|1.0|8|9|10|40:41:32(qc=5)
REM 
CELL 1.54180    6.78074    6.78074    6.78074   52.52473   52.52473   52.52473
LATT -1
SFAC Li O  S  Fe 
Li     1 -0.3023920000000  0.1761000000000  0.1762390000000 1.0   0.01
Li     1  0.1761000000000  0.1762390000000 -0.3023920000000 1.0   0.01
Li     1  0.1762390000000 -0.3023920000000  0.1761000000000 1.0   0.01
Li     1 -0.0896810000000 -0.0896810000000 -0.0896810000000 1.0  -0.06
O      2  0.2817990000000 -0.2001180000000 -0.2001840000000 1.0   0.31
O      2 -0.2001180000000 -0.2001840000000  0.2817990000000 1.0   0.31
O      2 -0.2001840000000  0.2817990000000 -0.2001180000000 1.0   0.31
O      2  0.2283770000000  0.2283770000000  0.2283770000000 1.0   0.31
S      3  0.4530540000000  0.4530540000000  0.4530540000000 1.0   0.21
Fe     4  0.4241580000000 -0.5759960000000 -0.1566270000000 1.0   3.52
Fe     4 -0.5759960000000 -0.1566270000000  0.4241580000000 1.0   3.52
Fe     4 -0.1566270000000  0.4241580000000 -0.5759960000000 1.0   3.52
END
