TITL LFSO-LiFe3S3O2-200909-155557-c8a7ce 0.5876 333.494539 -9.15485632E+003 9.98401 10.8894 18 (Cm) n - 1
REM
REM Run started: Thu, 10 Sep 2020 12:14:02 +0100 in /lustre/scratch/uccabz1/launch_tmp/launcher_2020-09-10-10-24-11-296449
REM CASTEP 20.1 from code version af48c487+ pr-geom-scf-spinfix Tue Jun 2 15:39:59 2020 +0100
REM Functional Perdew Burke Ernzerhof Relativity Koelling-Harmon Dispersion off
REM Cut-off 340.0000 eV Grid scale 1.7500 Gmax 16.5316 1/A FBSC none
REM MP grid 3 4 2 Offset 0.000 0.000 0.000 No. kpts 12 Spacing 0.07
REM Total runtime: 66872 s
REM Overall efficiency: 98.4167 %
REM
REM
REM
REM compiler GCC version 4.9.2
REM options -cpp -iprefix /lustre/shared/ucl/apps/gcc/4.9.2/bin/../lib/gcc/x86_64-unknown-linux-gnu/4.9.2/ -mtune=corei7 -march=x86-64 -g -Og
REM COMMAND_LINE
REM seed -1761396829 -733733054 -1352348910 186898946 228834963 -305191500 -204347727 1577691749 52173567 268635106 793933514 -1141160522
REM
REM S 3|1.8|5|6|7|30:31:32(qc=5)
REM O 2|1.5|12|13|15|20:21(qc=5)
REM Li 1|1.3|8|9|10|10U:20(qc=5)
REM Fe 3|2.2|2.0|1.0|8|9|10|40:41:32(qc=5)
REM 
CELL 1.54180    7.63412    5.81971    9.84788   93.72897  102.23536  126.47966
LATT -1
SFAC Li O  S  Fe 
Li     1 -0.4489410000000 -0.1212130000000 -0.2650210000000 1.0   0.02
Li     1 -0.1839210000000  0.1438070000000  0.2650190000000 1.0   0.02
O      2 -0.5005100000000 -0.1063820000000  0.2240520000000 1.0   0.07
O      2  0.2754370000000 -0.3304350000000 -0.2240540000000 1.0   0.07
O      2 -0.0777230000000 -0.6032210000000 -0.1728570000000 1.0   0.09
O      2  0.0951330000000 -0.4303650000000  0.1728550000000 1.0   0.09
S      3  0.4171810000000  0.2876750000000 -0.1136960000000 1.0  -0.01
S      3 -0.4691240000000  0.4013700000000  0.1136940000000 1.0  -0.01
S      3  0.0427380000000  0.0338710000000  0.1220390000000 1.0  -0.09
S      3 -0.0793030000000 -0.0881690000000 -0.1220410000000 1.0  -0.09
S      3  0.5876130000000  0.1256370000000 -0.4496700000000 1.0   0.12
S      3  0.0372830000000 -0.4246930000000  0.4496680000000 1.0   0.12
Fe     4  0.3242630000000 -0.2162830000000  0.3566150000000 1.0   2.51
Fe     4 -0.0323530000000  0.4271010000000 -0.3566170000000 1.0   2.51
Fe     4  0.2741970000000 -0.0709640000000  0.1217940000000 1.0   1.15
Fe     4  0.1524020000000 -0.1927590000000 -0.1217960000000 1.0   1.15
Fe     4  0.2819080000000 -0.5092520000000  0.1210900000000 1.0   1.13
Fe     4  0.1608170000000  0.3696570000000 -0.1210920000000 1.0   1.13
END
