TITL LFSO-Li5FeSO3-200910-070537-b9c080 -0.0267 143.407950 -3.48103664E+003 4.12148 4.23603 10 (C2) n - 1
REM
REM Run started: Thu, 10 Sep 2020 10:12:45 +0100 in /lustre/scratch/uccabz1/launch_tmp/launcher_2020-09-10-06-05-34-710502
REM CASTEP 20.1 from code version af48c487+ pr-geom-scf-spinfix Tue Jun 2 15:39:59 2020 +0100
REM Functional Perdew Burke Ernzerhof Relativity Koelling-Harmon Dispersion off
REM Cut-off 340.0000 eV Grid scale 1.7500 Gmax 16.5316 1/A FBSC none
REM MP grid 6 6 2 Offset 0.000 0.000 0.000 No. kpts 21 Spacing 0.07
REM Total runtime: 12756.3 s
REM Overall efficiency: 96.6667 %
REM
REM
REM
REM compiler GCC version 4.9.2
REM options -cpp -iprefix /lustre/shared/ucl/apps/gcc/4.9.2/bin/../lib/gcc/x86_64-unknown-linux-gnu/4.9.2/ -mtune=corei7 -march=x86-64 -g -Og
REM COMMAND_LINE
REM seed -1362189627 -1810154985 1981693570 -804005753 1927143665 -1712715147 1188600537 931965473 -1507719415 493431533 -1171077336 -164514706
REM
REM S 3|1.8|5|6|7|30:31:32(qc=5)
REM O 2|1.5|12|13|15|20:21(qc=5)
REM Li 1|1.3|8|9|10|10U:20(qc=5)
REM Fe 3|2.2|2.0|1.0|8|9|10|40:41:32(qc=5)
REM 
CELL 1.54180    6.47335    6.47335    8.26237   96.05920   96.05920  152.47238
LATT -1
SFAC Li O  S  Fe 
Li     1  0.0243230000000  0.3198210000000 -0.3472350000000 1.0   0.02
Li     1  0.6801790000000 -0.0243230000000  0.3472350000000 1.0   0.02
Li     1 -0.5822130000000 -0.0060120000000 -0.3211410000000 1.0  -0.02
Li     1  1.0060120000000  0.5822130000000  0.3211410000000 1.0  -0.02
Li     1 -0.2125740000000  0.2125740000000  0.0000000000000 1.0   0.03
O      2  0.3455070000000 -0.0893490000000  0.1817910000000 1.0   0.27
O      2  0.0893490000000 -0.3455070000000 -0.1817910000000 1.0   0.27
O      2  1.3225410000000  0.6774590000000  0.5000000000000 1.0   0.01
S      3 -0.5199940000000  0.5199940000000  0.0000000000000 1.0   0.11
Fe     4  0.1156260000000 -0.1156260000000  0.0000000000000 1.0   3.44
END
