TITL LFSO-Li3Fe3S2O4-200928-155307-dbf1d3 0.0614 167.743283 -5.55126545E+003 7.01170 7.34102 12 (P-1) n - 1
REM
REM Run started: Mon, 28 Sep 2020 22:09:32 +0100 in /lustre/scratch/uccabz1/launch_tmp/launcher_2020-09-28-14-53-05-457646
REM CASTEP 20.1 from code version af48c487+ pr-geom-scf-spinfix Tue Jun 2 15:39:59 2020 +0100
REM Functional Perdew Burke Ernzerhof Relativity Koelling-Harmon Dispersion off
REM Cut-off 340.0000 eV Grid scale 1.7500 Gmax 16.5316 1/A FBSC none
REM MP grid 4 4 3 Offset 0.000 0.000 0.000 No. kpts 24 Spacing 0.07
REM Total runtime: 24542.5 s
REM Overall efficiency: 97.5 %
REM
REM
REM
REM compiler GCC version 4.9.2
REM options -cpp -iprefix /lustre/shared/ucl/apps/gcc/4.9.2/bin/../lib/gcc/x86_64-unknown-linux-gnu/4.9.2/ -mtune=corei7 -march=x86-64 -g -Og
REM COMMAND_LINE
REM seed -850540318 -1060919906 469935537 332993474 247902730 2062130027 -1853561141 -1932646181 -1151570058 135472831 -1155797586 2003826386
REM
REM S 3|1.8|5|6|7|30:31:32(qc=5)
REM O 2|1.5|12|13|15|20:21(qc=5)
REM Li 1|1.3|8|9|10|10U:20(qc=5)
REM Fe 3|2.2|2.0|1.0|8|9|10|40:41:32(qc=5)
REM 
CELL 1.54180    6.00103    6.76171    6.00751   70.56458   96.73326  132.39679
LATT -1
SFAC Li O  S  Fe 
Li     1 -0.5322780000000  0.3041050000000 -0.2455730000000 1.0   0.00
Li     1  0.5322780000000 -0.3041050000000  0.2455730000000 1.0   0.00
Li     1  0.0000000000000  0.0000000000000  0.5000000000000 1.0   0.00
O      2 -0.4188630000000 -0.1230320000000  0.4583700000000 1.0   0.22
O      2  0.4188630000000  0.1230320000000 -0.4583700000000 1.0   0.22
O      2 -0.1220340000000 -0.3718440000000 -0.2529050000000 1.0   0.12
O      2  0.1220340000000  0.3718440000000  0.2529050000000 1.0   0.12
S      3  0.0165680000000  0.2921470000000 -0.2280910000000 1.0   0.04
S      3 -0.0165680000000 -0.2921470000000  0.2280910000000 1.0   0.04
Fe     4  0.2161300000000 -0.2554640000000  0.5697990000000 1.0   1.94
Fe     4 -0.2161300000000  0.2554640000000 -0.5697990000000 1.0   1.94
Fe     4  0.0000000000000  0.5000000000000  0.0000000000000 1.0   2.38
END
