TITL LFSO-Li4Fe2SO4-200910-140933-c552b8 -0.0729 470.192709 -9.16205116E+003 -11.4482 12.0391 22 (Pm) n - 1
REM
REM Run started: Fri, 11 Sep 2020 01:56:54 +0100 in /lustre/scratch/uccabz1/launch_tmp/launcher_2020-09-10-13-09-31-330568
REM CASTEP 20.1 from code version af48c487+ pr-geom-scf-spinfix Tue Jun 2 15:39:59 2020 +0100
REM Functional Perdew Burke Ernzerhof Relativity Koelling-Harmon Dispersion off
REM Cut-off 340.0000 eV Grid scale 1.7500 Gmax 16.5316 1/A FBSC none
REM MP grid 3 2 2 Offset 0.000 0.000 0.000 No. kpts 3 Spacing 0.07
REM Total runtime: 47265.8 s
REM Overall efficiency: 98.5833 %
REM
REM
REM
REM compiler GCC version 4.9.2
REM options -cpp -iprefix /lustre/shared/ucl/apps/gcc/4.9.2/bin/../lib/gcc/x86_64-unknown-linux-gnu/4.9.2/ -mtune=corei7 -march=x86-64 -g -Og
REM COMMAND_LINE
REM seed -1142605000 1526810039 971307379 -1311140515 1936925795 -598153530 1883922636 544686159 -370163842 -1203215897 785980501 2056729374
REM
REM S 3|1.8|5|6|7|30:31:32(qc=5)
REM O 2|1.5|12|13|15|20:21(qc=5)
REM Li 1|1.3|8|9|10|10U:20(qc=5)
REM Fe 3|2.2|2.0|1.0|8|9|10|40:41:32(qc=5)
REM 
CELL 1.54180    6.05381    8.86757    8.87500   90.00000   80.71652   90.00000
LATT -1
SFAC Li O  S  Fe 
Li     1  0.2041160000000  0.2553770000000  0.2808690000000 1.0  -0.01
Li     1  0.2041160000000 -0.2553770000000  0.2808690000000 1.0  -0.01
Li     1 -0.0435050000000  0.2719650000000 -0.3083250000000 1.0  -0.01
Li     1 -0.0435050000000 -0.2719650000000 -0.3083250000000 1.0  -0.01
Li     1 -0.5176200000000 -0.3116200000000 -0.0669200000000 1.0  -0.03
Li     1 -0.5176200000000  0.3116200000000 -0.0669200000000 1.0  -0.03
Li     1  0.3574480000000 -0.2209830000000 -0.4205960000000 1.0  -0.01
Li     1  0.3574480000000  0.2209830000000 -0.4205960000000 1.0  -0.01
O      2  0.2447650000000 -0.3029430000000 -0.2201550000000 1.0  -0.28
O      2  0.2447650000000  0.3029430000000 -0.2201550000000 1.0  -0.28
O      2  0.2105660000000  0.3228890000000  0.0857940000000 1.0  -0.28
O      2  0.2105660000000 -0.3228890000000  0.0857940000000 1.0  -0.28
O      2  0.0691310000000 -0.2077590000000  0.4931870000000 1.0  -0.17
O      2  0.0691310000000  0.2077590000000  0.4931870000000 1.0  -0.17
O      2 -0.2035350000000  0.3177400000000 -0.1152060000000 1.0  -0.28
O      2 -0.2035350000000 -0.3177400000000 -0.1152060000000 1.0  -0.28
S      3 -0.4058640000000 -0.2025260000000  0.3324360000000 1.0  -0.15
S      3 -0.4058640000000  0.2025260000000  0.3324360000000 1.0  -0.15
Fe     4  0.0540810000000 -0.3448220000000 -0.0582340000000 1.0  -2.47
Fe     4  0.0540810000000  0.3448220000000 -0.0582340000000 1.0  -2.47
Fe     4 -0.1571940000000 -0.1187840000000  0.4373840000000 1.0  -2.04
Fe     4 -0.1571940000000  0.1187840000000  0.4373840000000 1.0  -2.04
END
