TITL LFSO-Li4Fe3SO4-200928-031039-cf30e5 0.1618 353.804378 -1.08846939E+004 21.7830 22.4906 24 (P2/m) n - 1
REM
REM Run started: Tue, 29 Sep 2020 11:46:40 +0100 in /scratch/scratch/uccabz1/launch_tmp/launcher_2020-09-28-02-10-37-199183
REM CASTEP 19.11| from code version Version unavailable
REM Functional Perdew Burke Ernzerhof Relativity Koelling-Harmon Dispersion off
REM Cut-off 340.0000 eV Grid scale 1.7500 Gmax 16.5316 1/A FBSC none
REM MP grid 2 3 2 Offset 0.000 0.000 0.000 No. kpts 3 Spacing 0.07
REM Total runtime: 85090.9 s
REM Overall efficiency: 98.9167 %
REM
REM
REM
REM compiler GCC version 4.9.2
REM options -cpp -iprefix /scratch/UCL/applications/gcc/4.9.2/bin/../lib/gcc/x86_64-unknown-linux-gnu/4.9.2/ -mtune=corei7 -march=x86-64 -g -O2
REM COMMAND_LINE
REM seed 441812822 -1676211742 1315129482 2108406870 -1836609529 1785689069 -1539271582 162199712 -1914636629 952976805 987166841 -252505786
REM
REM S 3|1.8|5|6|7|30:31:32(qc=5)
REM O 2|1.5|12|13|15|20:21(qc=5)
REM Li 1|1.3|8|9|10|10U:20(qc=5)
REM Fe 3|2.2|2.0|1.0|8|9|10|40:41:32(qc=5)
REM 
CELL 1.54180    6.67952    5.88658   10.21108  118.21053   90.00000   90.00000
LATT -1
SFAC Li O  S  Fe 
Li     1 -0.2793730000000 -0.4063720000000 -0.3793330000000 1.0  -0.02
Li     1 -0.2793730000000  0.4063720000000  0.3793330000000 1.0  -0.02
Li     1  0.2793730000000  0.4063720000000  0.3793330000000 1.0  -0.02
Li     1  0.2793730000000 -0.4063720000000 -0.3793330000000 1.0  -0.02
Li     1 -0.2836730000000  0.1033680000000 -0.3693420000000 1.0  -0.04
Li     1 -0.2836730000000 -0.1033680000000  0.3693420000000 1.0  -0.04
Li     1  0.2836730000000 -0.1033680000000  0.3693420000000 1.0  -0.04
Li     1  0.2836730000000  0.1033680000000 -0.3693420000000 1.0  -0.04
O      2  0.2889440000000  0.2662190000000 -0.1390690000000 1.0   0.27
O      2  0.2889440000000 -0.2662190000000  0.1390690000000 1.0   0.27
O      2 -0.2889440000000 -0.2662190000000  0.1390690000000 1.0   0.27
O      2 -0.2889440000000  0.2662190000000 -0.1390690000000 1.0   0.27
O      2  0.3069850000000 -0.2464450000000  0.5022410000000 1.0   0.56
O      2  0.3069850000000  0.2464450000000 -0.5022410000000 1.0   0.56
O      2 -0.3069850000000  0.2464450000000 -0.5022410000000 1.0   0.56
O      2 -0.3069850000000 -0.2464450000000  0.5022410000000 1.0   0.56
S      3  0.0000000000000  0.2842850000000  0.2058870000000 1.0   0.22
S      3  0.0000000000000 -0.2842850000000 -0.2058870000000 1.0   0.22
Fe     4 -0.1926800000000  0.3533650000000  0.0521780000000 1.0   3.11
Fe     4 -0.1926800000000 -0.3533650000000 -0.0521780000000 1.0   3.11
Fe     4  0.1926800000000 -0.3533650000000 -0.0521780000000 1.0   3.11
Fe     4  0.1926800000000  0.3533650000000  0.0521780000000 1.0   3.11
Fe     4  0.5000000000000  0.1050530000000 -0.0938970000000 1.0   2.91
Fe     4 -0.5000000000000 -0.1050530000000  0.0938970000000 1.0   2.91
END
