TITL LFSO-Li4FeSO2-200910-073725-e01fe1 -0.0697 371.929293 -8.52859390E+003 -9.84138 10.2766 24 (C2) n - 1
REM
REM Run started: Thu, 10 Sep 2020 23:30:18 +0100 in /lustre/scratch/uccabz1/launch_tmp/launcher_2020-09-10-06-37-23-088797
REM CASTEP 20.1 from code version af48c487+ pr-geom-scf-spinfix Tue Jun 2 15:39:59 2020 +0100
REM Functional Perdew Burke Ernzerhof Relativity Koelling-Harmon Dispersion off
REM Cut-off 340.0000 eV Grid scale 1.7500 Gmax 16.5316 1/A FBSC none
REM MP grid 3 3 3 Offset 0.000 0.000 0.000 No. kpts 10 Spacing 0.07
REM Total runtime: 63900.9 s
REM Overall efficiency: 85.7692 %
REM
REM
REM
REM compiler GCC version 4.9.2
REM options -cpp -iprefix /lustre/shared/ucl/apps/gcc/4.9.2/bin/../lib/gcc/x86_64-unknown-linux-gnu/4.9.2/ -mtune=corei7 -march=x86-64 -g -Og
REM COMMAND_LINE
REM seed -44149733 531819553 449861232 1021748277 -1920773828 1356753512 494794048 -82316845 -1014660108 1844587720 -1125776309 -1372695214
REM
REM S 3|1.8|5|6|7|30:31:32(qc=5)
REM O 2|1.5|12|13|15|20:21(qc=5)
REM Li 1|1.3|8|9|10|10U:20(qc=5)
REM Fe 3|2.2|2.0|1.0|8|9|10|40:41:32(qc=5)
REM 
CELL 1.54180    7.18235    7.18235    8.01758   73.94823   73.94823   73.32990
LATT -1
SFAC Li O  S  Fe 
Li     1  0.4810210000000 -0.2344730000000 -0.0129540000000 1.0   0.01
Li     1  0.2344730000000 -0.4810210000000  0.0129540000000 1.0   0.01
Li     1  0.1979680000000 -0.3591070000000 -0.3581440000000 1.0   0.02
Li     1  0.3591070000000 -0.1979680000000  0.3581440000000 1.0   0.02
Li     1  0.0394960000000  0.4180280000000 -0.1811830000000 1.0   0.03
Li     1 -0.4180280000000 -0.0394960000000  0.1811830000000 1.0   0.03
Li     1 -0.4688780000000  0.4850640000000 -0.3059590000000 1.0  -0.02
Li     1 -0.4850640000000  0.4688780000000  0.3059590000000 1.0  -0.02
Li     1 -0.2359160000000 -0.2327800000000  0.4055130000000 1.0  -0.01
Li     1  0.2327800000000  0.2359160000000 -0.4055130000000 1.0  -0.01
Li     1  0.3846280000000  0.1655080000000 -0.1157220000000 1.0   0.01
Li     1 -0.1655080000000 -0.3846280000000  0.1157220000000 1.0   0.01
O      2  0.0185360000000 -0.3404940000000 -0.1027070000000 1.0  -0.21
O      2  0.3404940000000 -0.0185360000000  0.1027070000000 1.0  -0.21
O      2 -0.0142140000000  0.1884780000000 -0.2285520000000 1.0  -0.22
O      2 -0.1884780000000  0.0142140000000  0.2285520000000 1.0  -0.22
O      2 -0.3798270000000 -0.3206570000000  0.2903060000000 1.0  -0.02
O      2  0.3206570000000  0.3798270000000 -0.2903060000000 1.0  -0.02
S      3  0.3900160000000 -0.1321540000000 -0.3448540000000 1.0  -0.13
S      3  0.1321540000000 -0.3900160000000  0.3448540000000 1.0  -0.13
S      3 -0.4125280000000  0.4125280000000  0.0000000000000 1.0  -0.03
Fe     4  0.0696110000000 -0.0930990000000 -0.1570980000000 1.0  -3.20
Fe     4  0.0930990000000 -0.0696110000000  0.1570980000000 1.0  -3.20
Fe     4 -0.1531660000000  0.1531660000000  0.0000000000000 1.0  -2.31
END
