TITL LFSO-Li3Fe3S5O-201002-134555-e04cf7 0.0137 580.799612 -1.02907206E+004 19.8397 20.8211 24 (P1) n - 1
REM
REM Run started: Fri, 02 Oct 2020 22:51:31 +0100 in /scratch/scratch/mmm0366/launch_tmp/launcher_2020-10-02-12-45-53-546698
REM CASTEP 19.11| from code version Version unavailable
REM Functional Perdew Burke Ernzerhof Relativity Koelling-Harmon Dispersion off
REM Cut-off 340.0000 eV Grid scale 1.7500 Gmax 16.5316 1/A FBSC none
REM MP grid 2 2 2 Offset 0.000 0.000 0.000 No. kpts 4 Spacing 0.07
REM Total runtime: 32918.2 s
REM Overall efficiency: 87.625 %
REM
REM
REM
REM compiler GCC version 4.9.2
REM options -cpp -iprefix /scratch/UCL/applications/gcc/4.9.2/bin/../lib/gcc/x86_64-unknown-linux-gnu/4.9.2/ -mtune=corei7 -march=x86-64 -g -O2
REM COMMAND_LINE
REM seed -1582499648 959054376 -510348812 -1105550543 -1596398809 1671596806 548690024 -1726864278 1128362493 2111533184 -1553302524 -547313343
REM
REM S 3|1.8|5|6|7|30:31:32(qc=5)
REM O 2|1.5|12|13|15|20:21(qc=5)
REM Li 1|1.3|8|9|10|10U:20(qc=5)
REM Fe 3|2.2|2.0|1.0|8|9|10|40:41:32(qc=5)
REM 
CELL 1.54180    9.35241    9.35241    9.37790   60.08990   60.08990   60.00000
LATT -1
SFAC Li O  S  Fe 
Li     1 -0.3247960000000  0.1237310000000  0.0992830000000 1.0   0.01
Li     1  0.1237310000000  0.1017820000000  0.0992830000000 1.0   0.01
Li     1  0.1017820000000 -0.3247960000000  0.0992830000000 1.0   0.01
Li     1 -0.0008020000000 -0.1178000000000 -0.3825650000000 1.0   0.01
Li     1 -0.1178000000000 -0.4988320000000 -0.3825650000000 1.0   0.01
Li     1 -0.4988320000000 -0.0008020000000 -0.3825650000000 1.0   0.01
O      2  0.5278070000000  0.5278070000000 -0.5834200000000 1.0   0.35
O      2 -0.3624100000000 -0.3624100000000  0.0872320000000 1.0   0.12
S      3 -0.3878060000000  0.4509980000000 -0.0493900000000 1.0   0.14
S      3  0.4509980000000 -0.0138020000000 -0.0493900000000 1.0   0.14
S      3 -0.0138020000000 -0.3878060000000 -0.0493900000000 1.0   0.14
S      3  0.3144310000000 -0.1953130000000 -0.1752810000000 1.0   0.19
S      3 -0.1953130000000  0.0561620000000 -0.1752810000000 1.0   0.19
S      3  0.0561620000000  0.3144310000000 -0.1752810000000 1.0   0.19
S      3 -0.3935590000000 -0.0898850000000  0.3716160000000 1.0   0.32
S      3 -0.0898850000000  0.1118290000000  0.3716160000000 1.0   0.32
S      3  0.1118290000000 -0.3935590000000  0.3716160000000 1.0   0.32
S      3  0.0489530000000  0.0489530000000 -0.1468590000000 1.0  -0.10
Fe     4 -0.1722000000000 -0.5163960000000 -0.0394940000000 1.0   2.29
Fe     4 -0.5163960000000 -0.2719100000000 -0.0394940000000 1.0   2.29
Fe     4 -0.2719100000000 -0.1722000000000 -0.0394940000000 1.0   2.29
Fe     4 -0.4274930000000 -0.2542620000000  0.3016610000000 1.0   3.53
Fe     4 -0.2542620000000  0.3800940000000  0.3016610000000 1.0   3.53
Fe     4  0.3800940000000 -0.4274930000000  0.3016610000000 1.0   3.53
END
