TITL LFSO-Li4Fe2S3O2-200911-051012-830500 -0.0230 176.032035 -4.31413052E+003 0.102245E-02 0.108050E-02 11 (P-1) n - 1
REM
REM Run started: Fri, 11 Sep 2020 10:42:42 +0100 in /lustre/scratch/uccabz1/launch_tmp/launcher_2020-09-11-04-10-11-131914
REM CASTEP 20.1 from code version af48c487+ pr-geom-scf-spinfix Tue Jun 2 15:39:59 2020 +0100
REM Functional Perdew Burke Ernzerhof Relativity Koelling-Harmon Dispersion off
REM Cut-off 340.0000 eV Grid scale 1.7500 Gmax 16.5316 1/A FBSC none
REM MP grid 6 3 2 Offset 0.000 0.000 0.000 No. kpts 18 Spacing 0.07
REM Total runtime: 22484 s
REM Overall efficiency: 97.625 %
REM
REM
REM
REM compiler GCC version 4.9.2
REM options -cpp -iprefix /lustre/shared/ucl/apps/gcc/4.9.2/bin/../lib/gcc/x86_64-unknown-linux-gnu/4.9.2/ -mtune=corei7 -march=x86-64 -g -Og
REM COMMAND_LINE
REM seed -1063267809 -1571648850 -1268966841 127475385 641035651 -547547970 347021517 1070236514 553760903 2067275689 1845837108 2022118443
REM
REM S 3|1.8|5|6|7|30:31:32(qc=5)
REM O 2|1.5|12|13|15|20:21(qc=5)
REM Li 1|1.3|8|9|10|10U:20(qc=5)
REM Fe 3|2.2|2.0|1.0|8|9|10|40:41:32(qc=5)
REM 
CELL 1.54180    3.12051    7.77673   11.35354   56.45578  106.51655  129.56833
LATT -1
SFAC Li O  S  Fe 
Li     1  0.0345310000000  0.3814620000000  0.4714880000000 1.0
Li     1 -0.0345310000000 -0.3814620000000 -0.4714880000000 1.0
Li     1 -0.1411170000000  0.1245890000000 -0.2969450000000 1.0
Li     1  0.1411170000000 -0.1245890000000  0.2969450000000 1.0
O      2  0.4657640000000  0.2578430000000 -0.4006900000000 1.0
O      2 -0.4657640000000 -0.2578430000000  0.4006900000000 1.0
S      3 -0.2427820000000  0.3982490000000  0.1636010000000 1.0
S      3  0.2427820000000 -0.3982490000000 -0.1636010000000 1.0
S      3  0.0000000000000  0.0000000000000  0.0000000000000 1.0
Fe     4  0.4962080000000 -0.3607310000000  0.0252590000000 1.0
Fe     4 -0.4962080000000  0.3607310000000 -0.0252590000000 1.0
END
