TITL LFSO-Li3FeSO2-200911-160743-c08fff -0.0364 351.052697 -7.92708689E+003 10.9768 11.3539 21 (F222) n - 1
REM
REM Run started: Fri, 11 Sep 2020 21:27:25 +0100 in /lustre/scratch/uccabz1/launch_tmp/launcher_2020-09-11-15-07-41-428817
REM CASTEP 20.1 from code version af48c487+ pr-geom-scf-spinfix Tue Jun 2 15:39:59 2020 +0100
REM Functional Perdew Burke Ernzerhof Relativity Koelling-Harmon Dispersion off
REM Cut-off 340.0000 eV Grid scale 1.7500 Gmax 16.5316 1/A FBSC none
REM MP grid 3 3 3 Offset 0.000 0.000 0.000 No. kpts 8 Spacing 0.07
REM Total runtime: 19354.3 s
REM Overall efficiency: 97.5714 %
REM
REM
REM
REM compiler GCC version 4.9.2
REM options -cpp -iprefix /lustre/shared/ucl/apps/gcc/4.9.2/bin/../lib/gcc/x86_64-unknown-linux-gnu/4.9.2/ -mtune=corei7 -march=x86-64 -g -Og
REM COMMAND_LINE
REM seed -900599599 -1024577895 755190332 -1202263823 244954220 617989819 511067868 1676478517 -688095218 -758677233 -1162534264 -1631241646
REM
REM S 3|1.8|5|6|7|30:31:32(qc=5)
REM O 2|1.5|12|13|15|20:21(qc=5)
REM Li 1|1.3|8|9|10|10U:20(qc=5)
REM Fe 3|2.2|2.0|1.0|8|9|10|40:41:32(qc=5)
REM 
CELL 1.54180    7.32812    7.32812    8.22658  114.14018  114.14018   94.69067
LATT -1
SFAC Li O  S  Fe 
Li     1 -0.0822620000000 -0.1393650000000  0.3055950000000 1.0  -0.01
Li     1 -0.4449590000000 -0.3878570000000 -0.3055950000000 1.0  -0.01
Li     1  0.3878570000000  0.4449590000000  0.3055950000000 1.0  -0.01
Li     1  0.1393650000000  0.0822620000000 -0.3055950000000 1.0  -0.01
Li     1 -0.1070630000000  0.4729000000000  0.3275560000000 1.0  -0.05
Li     1  0.1453440000000  0.5653810000000 -0.3275560000000 1.0  -0.05
Li     1 -0.5653810000000 -0.1453440000000  0.3275560000000 1.0  -0.05
Li     1 -0.4729000000000  0.1070630000000 -0.3275560000000 1.0  -0.05
Li     1  0.2500000000000 -0.2500000000000  0.5000000000000 1.0   0.01
O      2  0.2323030000000 -0.0382750000000  0.4025400000000 1.0   0.18
O      2 -0.4408150000000 -0.1702370000000 -0.4025400000000 1.0   0.18
O      2  0.1702370000000  0.4408150000000  0.4025400000000 1.0   0.18
O      2  0.0382750000000 -0.2323030000000 -0.4025400000000 1.0   0.18
O      2 -0.4114740000000  0.4114740000000  0.5000000000000 1.0   0.24
O      2 -0.0885260000000  0.0885260000000 -0.5000000000000 1.0   0.24
S      3  0.4189390000000  0.4189390000000 -0.1621230000000 1.0   0.02
S      3 -0.4189390000000 -0.4189390000000  0.1621230000000 1.0   0.02
S      3 -0.0000000000000  0.0000000000000  0.0000000000000 1.0   0.21
Fe     4 -0.1723690000000 -0.1723690000000 -0.3447380000000 1.0   3.28
Fe     4  0.1723690000000  0.1723690000000  0.3447380000000 1.0   3.28
Fe     4 -0.2500000000000  0.2500000000000 -0.5000000000000 1.0   3.23
END
