TITL LFSO-Li2Fe2SO2-200913-003222-0b052c 0.1482 175.900430 -6.61306366E+003 12.0250 12.4860 14 (Cc) n - 1
REM
REM Run started: Sun, 13 Sep 2020 06:40:22 +0100 in /lustre/scratch/uccabz1/launch_tmp/launcher_2020-09-12-23-32-20-405769
REM CASTEP 20.1 from code version af48c487+ pr-geom-scf-spinfix Tue Jun 2 15:39:59 2020 +0100
REM Functional Perdew Burke Ernzerhof Relativity Koelling-Harmon Dispersion off
REM Cut-off 340.0000 eV Grid scale 1.7500 Gmax 16.5316 1/A FBSC none
REM MP grid 4 4 2 Offset 0.000 0.000 0.000 No. kpts 10 Spacing 0.07
REM Total runtime: 24323 s
REM Overall efficiency: 77.9167 %
REM
REM
REM
REM compiler GCC version 4.9.2
REM options -cpp -iprefix /lustre/shared/ucl/apps/gcc/4.9.2/bin/../lib/gcc/x86_64-unknown-linux-gnu/4.9.2/ -mtune=corei7 -march=x86-64 -g -Og
REM COMMAND_LINE
REM seed 1458007431 -234838167 2094284230 -977564147 775848471 -2035504982 -2063220954 -1792803256 -1965250800 -1005059449 311456036 1388203030
REM
REM S 3|1.8|5|6|7|30:31:32(qc=5)
REM O 2|1.5|12|13|15|20:21(qc=5)
REM Li 1|1.3|8|9|10|10U:20(qc=5)
REM Fe 3|2.2|2.0|1.0|8|9|10|40:41:32(qc=5)
REM 
CELL 1.54180    3.64920    3.64920   13.40592   96.95331   96.95331   89.60868
LATT -1
SFAC Li O  S  Fe 
Li     1  0.2272810000000  0.5762430000000  0.0743910000000 1.0  -0.14
Li     1  0.5762430000000  0.2272810000000 -0.4256090000000 1.0  -0.14
Li     1  0.2183630000000 -0.5788340000000 -0.1746020000000 1.0  -0.03
Li     1 -0.5788340000000  0.2183630000000  0.3253980000000 1.0  -0.03
O      2 -0.1766940000000  0.2084340000000  0.4521420000000 1.0   0.21
O      2  0.2084340000000 -0.1766940000000 -0.0478580000000 1.0   0.21
O      2  0.2806910000000  0.1168530000000  0.1461330000000 1.0   0.30
O      2  0.1168530000000  0.2806910000000 -0.3538670000000 1.0   0.30
S      3 -0.3426010000000 -0.1418070000000 -0.2233690000000 1.0   0.18
S      3 -0.1418070000000 -0.3426010000000  0.2766310000000 1.0   0.18
Fe     4 -0.2932740000000 -0.0830780000000 -0.0469920000000 1.0   2.76
Fe     4 -0.0830780000000 -0.2932740000000  0.4530080000000 1.0   2.76
Fe     4  0.1217500000000 -0.2172530000000 -0.3416010000000 1.0   2.73
Fe     4 -0.2172530000000  0.1217500000000  0.1583990000000 1.0   2.73
END
