TITL LFSO-Li2FeSO-200912-010919-27d1b5 -0.0014 256.688021 -6.01495091E+003 9.29859 9.65906 15 (Cmm2) n - 1
REM
REM Run started: Sat, 12 Sep 2020 05:54:02 +0100 in /lustre/scratch/uccabz1/launch_tmp/launcher_2020-09-12-00-09-17-633258
REM CASTEP 20.1 from code version af48c487+ pr-geom-scf-spinfix Tue Jun 2 15:39:59 2020 +0100
REM Functional Perdew Burke Ernzerhof Relativity Koelling-Harmon Dispersion off
REM Cut-off 340.0000 eV Grid scale 1.7500 Gmax 16.5316 1/A FBSC none
REM MP grid 2 3 3 Offset 0.000 0.000 0.000 No. kpts 4 Spacing 0.07
REM Total runtime: 17311.9 s
REM Overall efficiency: 96.875 %
REM
REM
REM
REM compiler GCC version 4.9.2
REM options -cpp -iprefix /lustre/shared/ucl/apps/gcc/4.9.2/bin/../lib/gcc/x86_64-unknown-linux-gnu/4.9.2/ -mtune=corei7 -march=x86-64 -g -Og
REM COMMAND_LINE
REM seed 242612918 1625131532 1582025794 1440551536 -204403663 369282106 -925288673 -1439914285 1892296126 -1532932325 1389939263 746593258
REM
REM S 3|1.8|5|6|7|30:31:32(qc=5)
REM O 2|1.5|12|13|15|20:21(qc=5)
REM Li 1|1.3|8|9|10|10U:20(qc=5)
REM Fe 3|2.2|2.0|1.0|8|9|10|40:41:32(qc=5)
REM 
CELL 1.54180    7.85372    6.63506    6.63506  132.06350   90.00000   90.00000
LATT -1
SFAC Li O  S  Fe 
Li     1 -0.2640960000000 -0.0918460000000 -0.3793390000000 1.0  -0.01
Li     1 -0.2640960000000  0.0918460000000  0.3793390000000 1.0  -0.01
Li     1 -0.2640960000000  0.3793390000000  0.0918460000000 1.0  -0.01
Li     1 -0.2640960000000 -0.3793390000000 -0.0918460000000 1.0  -0.01
Li     1 -0.0233100000000 -0.0000000000000  0.5000000000000 1.0   0.00
Li     1 -0.0233100000000  0.5000000000000  0.0000000000000 1.0   0.00
O      2 -0.1876810000000  0.2634960000000 -0.2634960000000 1.0   0.07
O      2 -0.1876810000000 -0.2634960000000  0.2634960000000 1.0   0.07
O      2 -0.1926380000000 -0.0000000000000  0.0000000000000 1.0   0.23
S      3  0.2129450000000  0.1414990000000 -0.1414990000000 1.0   0.14
S      3  0.2129450000000 -0.1414990000000  0.1414990000000 1.0   0.14
S      3  0.5269950000000 -0.5000000000000  0.5000000000000 1.0   0.15
Fe     4  0.3123320000000 -0.2332440000000 -0.2332440000000 1.0   2.92
Fe     4  0.3123320000000  0.2332440000000  0.2332440000000 1.0   2.92
Fe     4  0.0317740000000 -0.0000000000000  0.0000000000000 1.0   2.70
END
