TITL LFSO-LiFe3S2O3-200909-163452-2826f8 0.8231 124.617525 -4.71126168E+003 -0.384108 2.27938 9 (Pmm2) n - 1
REM
REM Run started: Thu, 10 Sep 2020 01:22:08 +0100 in /lustre/scratch/uccabz1/launch_tmp/launcher_2020-09-09-15-34-49-186640
REM CASTEP 20.1 from code version af48c487+ pr-geom-scf-spinfix Tue Jun 2 15:39:59 2020 +0100
REM Functional Perdew Burke Ernzerhof Relativity Koelling-Harmon Dispersion off
REM Cut-off 340.0000 eV Grid scale 1.7500 Gmax 16.5316 1/A FBSC none
REM MP grid 6 5 2 Offset 0.000 0.000 0.000 No. kpts 9 Spacing 0.07
REM Total runtime: 34324.4 s
REM Overall efficiency: 95.6667 %
REM
REM
REM
REM compiler GCC version 4.9.2
REM options -cpp -iprefix /lustre/shared/ucl/apps/gcc/4.9.2/bin/../lib/gcc/x86_64-unknown-linux-gnu/4.9.2/ -mtune=corei7 -march=x86-64 -g -Og
REM COMMAND_LINE
REM seed 1708474534 -1892101730 811552697 -450334432 494804532 -1306753733 1898697579 -35586686 -446507952 -1949664630 282864622 -1814710087
REM
REM S 3|1.8|5|6|7|30:31:32(qc=5)
REM O 2|1.5|12|13|15|20:21(qc=5)
REM Li 1|1.3|8|9|10|10U:20(qc=5)
REM Fe 3|2.2|2.0|1.0|8|9|10|40:41:32(qc=5)
REM 
CELL 1.54180    2.93658    3.35604   12.64476   90.00000   90.00000   90.00000
LATT -1
SFAC Li O  S  Fe 
Li     1 -0.0000000000000 -0.0000000000000 -0.2431470000000 1.0   0.01
O      2 -0.0000000000000 -0.0000000000000 -0.0242530000000 1.0  -0.06
O      2 -0.5000000000000  0.5000000000000 -0.1624570000000 1.0  -0.08
O      2  0.5000000000000 -0.0000000000000 -0.3589880000000 1.0   0.07
S      3 -0.0000000000000 -0.0000000000000  0.2003650000000 1.0  -0.01
S      3 -0.0000000000000  0.5000000000000  0.4736870000000 1.0   0.01
Fe     4  0.5000000000000 -0.5000000000000 -0.4105470000000 1.0   0.66
Fe     4  0.5000000000000 -0.0000000000000  0.0830120000000 1.0   0.09
Fe     4 -0.0000000000000 -0.5000000000000 -0.0712470000000 1.0  -1.07
END
