TITL LFSO-Li4Fe2SO3-200910-220558-1da002 -0.0007 162.221828 -4.14153850E+003 -7.99997 8.07939 10 (R3) n - 1
REM
REM Run started: Thu, 10 Sep 2020 22:37:22 +0100 in /lustre/scratch/uccabz1/launch_tmp/launcher_2020-09-10-21-05-57-096045
REM CASTEP 20.1 from code version af48c487+ pr-geom-scf-spinfix Tue Jun 2 15:39:59 2020 +0100
REM Functional Perdew Burke Ernzerhof Relativity Koelling-Harmon Dispersion off
REM Cut-off 340.0000 eV Grid scale 1.7500 Gmax 16.5316 1/A FBSC none
REM MP grid 3 3 3 Offset 0.000 0.000 0.000 No. kpts 6 Spacing 0.07
REM Total runtime: 2346.03 s
REM Overall efficiency: 94.1667 %
REM
REM
REM
REM compiler GCC version 4.9.2
REM options -cpp -iprefix /lustre/shared/ucl/apps/gcc/4.9.2/bin/../lib/gcc/x86_64-unknown-linux-gnu/4.9.2/ -mtune=corei7 -march=x86-64 -g -Og
REM COMMAND_LINE
REM seed 1680744464 -1604385701 353358318 553309020 -1205330937 483337777 -920578455 -441032463 -1276517784 -333071044 1423321519 2005380243
REM
REM S 3|1.8|5|6|7|30:31:32(qc=5)
REM O 2|1.5|12|13|15|20:21(qc=5)
REM Li 1|1.3|8|9|10|10U:20(qc=5)
REM Fe 3|2.2|2.0|1.0|8|9|10|40:41:32(qc=5)
REM 
CELL 1.54180    5.45531    5.45531    5.45531   91.31417   91.31417   91.31417
LATT -1
SFAC Li O  S  Fe 
Li     1 -0.2495390000000  0.1495510000000 -0.5815740000000 1.0   0.01
Li     1 -0.5815740000000 -0.2495390000000  0.1495510000000 1.0   0.01
Li     1  0.1495510000000 -0.5815740000000 -0.2495390000000 1.0   0.01
Li     1  0.2828220000000  0.2828220000000  0.2828220000000 1.0   0.00
O      2  0.0994510000000 -0.3271820000000 -0.0158460000000 1.0  -0.31
O      2 -0.0158460000000  0.0994510000000 -0.3271820000000 1.0  -0.31
O      2 -0.3271820000000 -0.0158460000000  0.0994510000000 1.0  -0.31
S      3  0.5225690000000  0.5225690000000  0.5225690000000 1.0  -0.11
Fe     4 -0.0003510000000 -0.0003510000000 -0.0003510000000 1.0  -3.48
Fe     4 -0.2367350000000 -0.2367350000000 -0.2367350000000 1.0  -3.54
END
