TITL LFSO-Li4Fe2S3O2-200911-084657-e7159e -0.0366 384.278201 -8.62824675E+003 11.9693 12.6724 22 (I-4) n - 1
REM
REM Run started: Sat, 12 Sep 2020 07:43:09 +0100 in /lustre/scratch/uccabz1/launch_tmp/launcher_2020-09-11-13-59-39-873649
REM CASTEP 20.1 from code version af48c487+ pr-geom-scf-spinfix Tue Jun 2 15:39:59 2020 +0100
REM Functional Perdew Burke Ernzerhof Relativity Koelling-Harmon Dispersion off
REM Cut-off 340.0000 eV Grid scale 1.7500 Gmax 16.5316 1/A FBSC none
REM MP grid 4 3 3 Offset 0.000 0.000 0.000 No. kpts 18 Spacing 0.07
REM Total runtime: 72915.9 s
REM Overall efficiency: 98.7273 %
REM
REM
REM
REM compiler GCC version 4.9.2
REM options -cpp -iprefix /lustre/shared/ucl/apps/gcc/4.9.2/bin/../lib/gcc/x86_64-unknown-linux-gnu/4.9.2/ -mtune=corei7 -march=x86-64 -g -Og
REM COMMAND_LINE
REM seed -2136013162 -1130382380 683127953 -1585600921 57233644 -125072069 1134790362 -702649473 587342320 1009788772 -657470668 875588314
REM
REM S 3|1.8|5|6|7|30:31:32(qc=5)
REM O 2|1.5|12|13|15|20:21(qc=5)
REM Li 1|1.3|8|9|10|10U:20(qc=5)
REM Fe 3|2.2|2.0|1.0|8|9|10|40:41:32(qc=5)
REM 
CELL 1.54180   10.31996   10.31996   10.31996   52.38462  143.62754  143.62754
LATT -1
SFAC Li O  S  Fe 
Li     1 -0.4050850000000 -0.4900210000000 -0.3141950000000 1.0   0.01
Li     1  0.4050850000000  0.0908890000000 -0.0849340000000 1.0   0.01
Li     1  0.1758240000000  0.0849340000000  0.4900210000000 1.0   0.01
Li     1 -0.1758240000000  0.3141950000000 -0.0908890000000 1.0   0.01
Li     1  0.3985280000000 -0.4489200000000 -0.2726600000000 1.0  -0.02
Li     1 -0.3985280000000  0.3288110000000  0.1525530000000 1.0  -0.02
Li     1  0.1762590000000 -0.1525530000000  0.4489200000000 1.0  -0.02
Li     1 -0.1762590000000  0.2726600000000 -0.3288110000000 1.0  -0.02
O      2  0.0843150000000  0.0199800000000  0.2791070000000 1.0   0.13
O      2 -0.0843150000000  0.1947900000000 -0.0643340000000 1.0   0.13
O      2  0.2591250000000  0.0643340000000 -0.0199800000000 1.0   0.13
O      2 -0.2591250000000 -0.2791070000000 -0.1947900000000 1.0   0.13
S      3 -0.0906940000000  0.4572090000000  0.1153370000000 1.0   0.17
S      3  0.0906940000000  0.2060310000000 -0.4520960000000 1.0   0.17
S      3 -0.3418720000000  0.4520960000000 -0.4572090000000 1.0   0.17
S      3  0.3418720000000 -0.1153370000000 -0.2060310000000 1.0   0.17
S      3  0.5000000000000 -0.0515360000000  0.4484650000000 1.0  -0.00
S      3  0.5000000000000 -0.4484650000000  0.0515360000000 1.0  -0.00
Fe     4 -0.0937720000000 -0.0094110000000 -0.3007930000000 1.0   2.70
Fe     4  0.0937720000000 -0.2070220000000  0.0843630000000 1.0   2.70
Fe     4 -0.2913830000000 -0.0843630000000  0.0094110000000 1.0   2.70
Fe     4  0.2913830000000  0.3007930000000  0.2070220000000 1.0   2.70
END
