TITL LFSO-Li6FeSO3-200909-212507-116311 -0.0067 291.341884 -7.36261767E+003 -8.00190 8.22333 22 (P3) n - 1
REM
REM Run started: Thu, 10 Sep 2020 04:37:35 +0100 in /lustre/scratch/uccabz1/launch_tmp/launcher_2020-09-09-20-25-05-367646
REM CASTEP 20.1 from code version af48c487+ pr-geom-scf-spinfix Tue Jun 2 15:39:59 2020 +0100
REM Functional Perdew Burke Ernzerhof Relativity Koelling-Harmon Dispersion off
REM Cut-off 340.0000 eV Grid scale 1.7500 Gmax 16.5316 1/A FBSC none
REM MP grid 3 3 3 Offset 0.000 0.000 0.000 No. kpts 8 Spacing 0.07
REM Total runtime: 27625.6 s
REM Overall efficiency: 98.1111 %
REM
REM
REM
REM compiler GCC version 4.9.2
REM options -cpp -iprefix /lustre/shared/ucl/apps/gcc/4.9.2/bin/../lib/gcc/x86_64-unknown-linux-gnu/4.9.2/ -mtune=corei7 -march=x86-64 -g -Og
REM COMMAND_LINE
REM seed -33009568 1144111508 -1512542555 135030825 2035015933 -1855223398 495739952 1658551736 916102370 -223731595 -507357698 -1753082560
REM
REM S 3|1.8|5|6|7|30:31:32(qc=5)
REM O 2|1.5|12|13|15|20:21(qc=5)
REM Li 1|1.3|8|9|10|10U:20(qc=5)
REM Fe 3|2.2|2.0|1.0|8|9|10|40:41:32(qc=5)
REM 
CELL 1.54180    5.57780    7.76613    7.76613  120.00000   90.00000   90.00000
LATT -1
SFAC Li O  S  Fe 
Li     1  0.0494290000000  0.3836870000000  0.0476000000000 1.0   0.01
Li     1  0.0494290000000 -0.0476000000000  0.3360870000000 1.0   0.01
Li     1  0.0494290000000 -0.3360870000000 -0.3836870000000 1.0   0.01
Li     1 -0.3845420000000  0.2276710000000  0.2969930000000 1.0   0.01
Li     1 -0.3845420000000 -0.2969930000000 -0.0693220000000 1.0   0.01
Li     1 -0.3845420000000  0.0693220000000 -0.2276710000000 1.0   0.01
Li     1  0.0854290000000  0.0520730000000 -0.3010030000000 1.0   0.03
Li     1  0.0854290000000  0.3010030000000  0.3530760000000 1.0   0.03
Li     1  0.0854290000000 -0.3530760000000 -0.0520730000000 1.0   0.03
Li     1 -0.4838850000000  0.6198930000000 -0.4236480000000 1.0   0.00
Li     1 -0.4838850000000  0.4236480000000  0.0435400000000 1.0   0.00
Li     1 -0.4838850000000 -0.0435400000000 -0.6198930000000 1.0   0.00
O      2  0.3183410000000 -0.2909430000000 -0.1919320000000 1.0  -0.13
O      2  0.3183410000000  0.1919320000000 -0.0990110000000 1.0  -0.13
O      2  0.3183410000000  0.0990110000000  0.2909430000000 1.0  -0.13
O      2 -0.1963920000000  0.0538970000000 -0.4491500000000 1.0  -0.19
O      2 -0.1963920000000  0.4491500000000  0.5030470000000 1.0  -0.19
O      2 -0.1963920000000 -0.5030470000000 -0.0538970000000 1.0  -0.19
S      3  0.2683980000000 -0.3333330000000  0.3333330000000 1.0  -0.01
S      3 -0.1576200000000  0.0000000000000 -0.0000000000000 1.0  -0.10
Fe     4 -0.7165260000000  0.0000000000000 -0.0000000000000 1.0  -3.61
Fe     4 -0.2067550000000  0.3333330000000 -0.3333330000000 1.0  -3.49
END
