TITL LFSO-Li2Fe2S2O-200913-121825-4604a1 0.2340 335.847205 -9.51939862E+003 -22.3389 22.4906 21 (P31) n - 1
REM
REM Run started: Mon, 14 Sep 2020 04:39:12 +0100 in /lustre/scratch/uccabz1/launch_tmp/launcher_2020-09-13-11-18-23-951319
REM CASTEP 20.1 from code version af48c487+ pr-geom-scf-spinfix Tue Jun 2 15:39:59 2020 +0100
REM Functional Perdew Burke Ernzerhof Relativity Koelling-Harmon Dispersion off
REM Cut-off 340.0000 eV Grid scale 1.7500 Gmax 16.5316 1/A FBSC none
REM MP grid 2 3 3 Offset 0.000 0.000 0.000 No. kpts 5 Spacing 0.07
REM Total runtime: 64080.4 s
REM Overall efficiency: 81.9167 %
REM
REM
REM
REM compiler GCC version 4.9.2
REM options -cpp -iprefix /lustre/shared/ucl/apps/gcc/4.9.2/bin/../lib/gcc/x86_64-unknown-linux-gnu/4.9.2/ -mtune=corei7 -march=x86-64 -g -Og
REM COMMAND_LINE
REM seed 987560540 472944889 580066966 349099148 827263816 -1990265243 527920963 653479118 838912627 -844957122 -1282193450 -892344989
REM
REM S 3|1.8|5|6|7|30:31:32(qc=5)
REM O 2|1.5|12|13|15|20:21(qc=5)
REM Li 1|1.3|8|9|10|10U:20(qc=5)
REM Fe 3|2.2|2.0|1.0|8|9|10|40:41:32(qc=5)
REM 
CELL 1.54180    8.40991    6.79063    6.79063  120.00000   90.00000   90.00000
LATT -1
SFAC Li O  S  Fe 
Li     1 -0.1791460000000  0.1362110000000 -0.4229600000000 1.0   0.01
Li     1  0.1541870000000  0.4229600000000 -0.4408290000000 1.0   0.01
Li     1  0.4875210000000  0.4408290000000 -0.1362110000000 1.0   0.01
Li     1  0.0184540000000 -0.0683150000000  0.1348830000000 1.0  -0.02
Li     1  0.3517870000000 -0.1348830000000 -0.2031990000000 1.0  -0.02
Li     1 -0.3148790000000  0.2031990000000  0.0683150000000 1.0  -0.02
O      2  0.2854160000000 -0.3858630000000 -0.4908060000000 1.0  -0.30
O      2 -0.3812510000000  0.4908060000000  0.1049430000000 1.0  -0.30
O      2 -0.0479170000000 -0.1049430000000  0.3858630000000 1.0  -0.30
S      3 -0.0459960000000 -0.6706520000000 -0.7593310000000 1.0  -0.23
S      3  0.2873370000000  0.7593310000000  0.0886790000000 1.0  -0.23
S      3 -0.3793290000000 -0.0886790000000  0.6706520000000 1.0  -0.23
S      3 -0.4201960000000  0.2747470000000 -0.5632200000000 1.0  -0.24
S      3 -0.0868630000000  0.5632200000000 -0.1620330000000 1.0  -0.24
S      3  0.2464710000000  0.1620330000000 -0.2747470000000 1.0  -0.24
Fe     4 -0.5650980000000 -0.0176380000000  0.4310410000000 1.0  -3.24
Fe     4 -0.2317650000000 -0.4310410000000 -0.4486790000000 1.0  -3.24
Fe     4  0.1015680000000  0.4486790000000  0.0176380000000 1.0  -3.24
Fe     4  0.4926430000000 -0.4205880000000  0.3691930000000 1.0  -3.43
Fe     4 -0.1740240000000 -0.3691930000000 -0.7897810000000 1.0  -3.43
Fe     4  0.1593100000000  0.7897810000000  0.4205880000000 1.0  -3.43
END
