TITL LFSO-Li4Fe2SO3-200910-221819-3cfac9 0.0043 265.002982 -8.28982195E+003 15.9955 16.2304 20 (Cc) n - 1
REM
REM Run started: Fri, 11 Sep 2020 11:53:45 +0100 in /lustre/scratch/uccabz1/launch_tmp/launcher_2020-09-10-21-18-17-974065
REM CASTEP 20.1 from code version af48c487+ pr-geom-scf-spinfix Tue Jun 2 15:39:59 2020 +0100
REM Functional Perdew Burke Ernzerhof Relativity Koelling-Harmon Dispersion off
REM Cut-off 340.0000 eV Grid scale 1.7500 Gmax 16.5316 1/A FBSC none
REM MP grid 3 3 3 Offset 0.000 0.000 0.000 No. kpts 10 Spacing 0.07
REM Total runtime: 49209.9 s
REM Overall efficiency: 63.5455 %
REM
REM
REM
REM compiler GCC version 4.9.2
REM options -cpp -iprefix /lustre/shared/ucl/apps/gcc/4.9.2/bin/../lib/gcc/x86_64-unknown-linux-gnu/4.9.2/ -mtune=corei7 -march=x86-64 -g -Og
REM COMMAND_LINE
REM seed 1343838188 -1867178236 1109073634 317909747 2043027299 -1149964495 251460994 1579051619 374647340 1271855472 -114511713 -1414614606
REM
REM S 3|1.8|5|6|7|30:31:32(qc=5)
REM O 2|1.5|12|13|15|20:21(qc=5)
REM Li 1|1.3|8|9|10|10U:20(qc=5)
REM Fe 3|2.2|2.0|1.0|8|9|10|40:41:32(qc=5)
REM 
CELL 1.54180   11.30171    7.82396    7.82396   57.50714   38.64082   38.64082
LATT -1
SFAC Li O  S  Fe 
Li     1  0.6563770000000 -0.1636020000000 -0.4035680000000 1.0  -0.02
Li     1  0.1563770000000 -0.4035680000000 -0.1636020000000 1.0  -0.02
Li     1 -0.3954560000000  0.4831600000000 -0.1796000000000 1.0   0.02
Li     1  0.1045440000000 -0.1796000000000  0.4831600000000 1.0   0.02
Li     1  0.0573870000000 -0.1541610000000  0.1304510000000 1.0   0.02
Li     1 -0.4426130000000  0.1304510000000 -0.1541610000000 1.0   0.02
Li     1 -0.3762820000000 -0.5573800000000  0.1676990000000 1.0  -0.02
Li     1  0.1237180000000  0.1676990000000 -0.5573800000000 1.0  -0.02
O      2  0.3139900000000 -0.2286380000000  0.4514520000000 1.0   0.22
O      2 -0.1860100000000  0.4514520000000 -0.2286380000000 1.0   0.22
O      2 -0.1408630000000 -0.2014270000000 -0.1623940000000 1.0   0.33
O      2  0.3591370000000 -0.1623940000000 -0.2014270000000 1.0   0.33
O      2  0.3553660000000  0.2012880000000 -0.1527950000000 1.0   0.32
O      2 -0.1446340000000 -0.1527950000000  0.2012880000000 1.0   0.32
S      3 -0.1845160000000  0.2447700000000  0.4128170000000 1.0   0.22
S      3  0.3154840000000  0.4128170000000  0.2447700000000 1.0   0.22
Fe     4 -0.3538020000000 -0.0439500000000  0.1946110000000 1.0   3.52
Fe     4  0.1461980000000  0.1946110000000 -0.0439500000000 1.0   3.52
Fe     4 -0.0391220000000 -0.4861440000000 -0.2686310000000 1.0   3.39
Fe     4  0.4608780000000 -0.2686310000000 -0.4861440000000 1.0   3.39
END
