TITL LFSO-Li2Fe4SO4-200912-015422-8f6676 -0.0047 168.077272 -5.90669030E+003 7.52078 7.89970 11 (Cm) n - 1
REM
REM Run started: Sat, 12 Sep 2020 06:29:47 +0100 in /lustre/scratch/uccabz1/launch_tmp/launcher_2020-09-12-00-54-21-285103
REM CASTEP 20.1 from code version af48c487+ pr-geom-scf-spinfix Tue Jun 2 15:39:59 2020 +0100
REM Functional Perdew Burke Ernzerhof Relativity Koelling-Harmon Dispersion off
REM Cut-off 340.0000 eV Grid scale 1.7500 Gmax 16.5316 1/A FBSC none
REM MP grid 3 3 4 Offset 0.000 0.000 0.000 No. kpts 18 Spacing 0.07
REM Total runtime: 12991.3 s
REM Overall efficiency: 94 %
REM
REM
REM
REM compiler GCC version 4.9.2
REM options -cpp -iprefix /lustre/shared/ucl/apps/gcc/4.9.2/bin/../lib/gcc/x86_64-unknown-linux-gnu/4.9.2/ -mtune=corei7 -march=x86-64 -g -Og
REM COMMAND_LINE
REM seed -2092876202 -657215611 -61729082 -1054611889 679643878 -426706194 1096550778 204499811 218153579 1656544274 919085518 -1669707642
REM
REM S 3|1.8|5|6|7|30:31:32(qc=5)
REM O 2|1.5|12|13|15|20:21(qc=5)
REM Li 1|1.3|8|9|10|10U:20(qc=5)
REM Fe 3|2.2|2.0|1.0|8|9|10|40:41:32(qc=5)
REM 
CELL 1.54180    6.16086    6.39658    5.64613  111.28132  123.06452   90.00000
LATT -1
SFAC Li O  S  Fe 
Li     1  0.0551390000000 -0.4860330000000 -0.3821050000000 1.0   0.01
Li     1 -0.4372440000000 -0.4860330000000 -0.3821050000000 1.0   0.01
O      2 -0.0879820000000  0.2210370000000  0.3187780000000 1.0   0.15
O      2  0.4067600000000  0.2210370000000  0.3187780000000 1.0   0.15
O      2 -0.2452440000000 -0.2607410000000  0.0165810000000 1.0   0.15
O      2  0.2618240000000 -0.2607410000000  0.0165810000000 1.0   0.15
S      3 -0.1841720000000 -0.0731370000000 -0.3683450000000 1.0   0.11
Fe     4  0.2653920000000 -0.0097790000000 -0.0670200000000 1.0   1.88
Fe     4 -0.3324120000000 -0.0097790000000 -0.0670200000000 1.0   1.88
Fe     4  0.3990890000000  0.9703610000000  0.3971750000000 1.0   1.52
Fe     4 -0.0019140000000  0.9703610000000  0.3971750000000 1.0   1.52
END
