TITL LFSO-Li5FeS3O-200910-102447-c8a5e8 -0.0209 396.172292 -6.42559222E+003 -7.05179 7.36940 20 (P2) n - 1
REM
REM Run started: Thu, 10 Sep 2020 20:23:42 +0100 in /lustre/scratch/uccabz1/launch_tmp/launcher_2020-09-10-09-24-46-210127
REM CASTEP 20.1 from code version af48c487+ pr-geom-scf-spinfix Tue Jun 2 15:39:59 2020 +0100
REM Functional Perdew Burke Ernzerhof Relativity Koelling-Harmon Dispersion off
REM Cut-off 340.0000 eV Grid scale 1.7500 Gmax 16.5316 1/A FBSC none
REM MP grid 4 3 1 Offset 0.000 0.000 0.000 No. kpts 4 Spacing 0.07
REM Total runtime: 37755.9 s
REM Overall efficiency: 98.0769 %
REM
REM
REM
REM compiler GCC version 4.9.2
REM options -cpp -iprefix /lustre/shared/ucl/apps/gcc/4.9.2/bin/../lib/gcc/x86_64-unknown-linux-gnu/4.9.2/ -mtune=corei7 -march=x86-64 -g -Og
REM COMMAND_LINE
REM seed 680390240 -1624837955 -1825549383 1993775422 1411470373 -478486287 1104043049 -1017359863 1376133016 292096538 -981042837 1931503362
REM
REM S 3|1.8|5|6|7|30:31:32(qc=5)
REM O 2|1.5|12|13|15|20:21(qc=5)
REM Li 1|1.3|8|9|10|10U:20(qc=5)
REM Fe 3|2.2|2.0|1.0|8|9|10|40:41:32(qc=5)
REM 
CELL 1.54180    4.55397    5.95193   14.97943   90.00000  102.64210   90.00000
LATT -1
SFAC Li O  S  Fe 
Li     1  0.5043860000000  0.3983260000000 -0.3275920000000 1.0  -0.02
Li     1 -0.5043860000000  0.3983260000000  0.3275920000000 1.0  -0.02
Li     1 -0.2229770000000 -0.2499280000000 -0.4444750000000 1.0  -0.00
Li     1  0.2229770000000 -0.2499280000000  0.4444750000000 1.0  -0.00
Li     1 -0.4641560000000 -0.0524880000000 -0.2447750000000 1.0  -0.01
Li     1  0.4641560000000 -0.0524880000000  0.2447750000000 1.0  -0.01
Li     1  0.2309070000000 -0.5129550000000 -0.1942830000000 1.0   0.02
Li     1 -0.2309070000000 -0.5129550000000  0.1942830000000 1.0   0.02
Li     1 -0.2239490000000 -0.1847490000000  0.0548370000000 1.0   0.00
Li     1  0.2239490000000 -0.1847490000000 -0.0548370000000 1.0   0.00
O      2 -0.4612360000000  0.2565860000000 -0.2205720000000 1.0  -0.24
O      2  0.4612360000000  0.2565860000000  0.2205720000000 1.0  -0.24
S      3  0.2089750000000  0.2346280000000 -0.0598920000000 1.0   0.02
S      3 -0.2089750000000  0.2346280000000  0.0598920000000 1.0   0.02
S      3  0.3223870000000 -0.2606330000000 -0.3868470000000 1.0  -0.00
S      3 -0.3223870000000 -0.2606330000000  0.3868470000000 1.0  -0.00
S      3  0.3247450000000 -0.2872790000000  0.1115070000000 1.0  -0.18
S      3 -0.3247450000000 -0.2872790000000 -0.1115070000000 1.0  -0.18
Fe     4 -0.3107930000000  0.3114120000000 -0.0983470000000 1.0  -3.11
Fe     4  0.3107930000000  0.3114120000000  0.0983470000000 1.0  -3.11
END
