TITL LFSO-Li3Fe3SO5-200927-075304-06f232 0.0590 337.509674 -1.13518039E+004 18.1864 21.4462 24 (P4) n - 1
REM
REM Run started: Sun, 27 Sep 2020 17:15:02 +0100 in /lustre/scratch/uccabz1/launch_tmp/launcher_2020-09-27-06-53-01-829451
REM CASTEP 20.1 from code version af48c487+ pr-geom-scf-spinfix Tue Jun 2 15:39:59 2020 +0100
REM Functional Perdew Burke Ernzerhof Relativity Koelling-Harmon Dispersion off
REM Cut-off 340.0000 eV Grid scale 1.7500 Gmax 16.5316 1/A FBSC none
REM MP grid 3 3 2 Offset 0.000 0.000 0.000 No. kpts 3 Spacing 0.07
REM Total runtime: 30347.9 s
REM Overall efficiency: 97.3333 %
REM
REM
REM
REM compiler GCC version 4.9.2
REM options -cpp -iprefix /lustre/shared/ucl/apps/gcc/4.9.2/bin/../lib/gcc/x86_64-unknown-linux-gnu/4.9.2/ -mtune=corei7 -march=x86-64 -g -Og
REM COMMAND_LINE
REM seed -1656335272 2062760007 1921071107 1547574212 1903222422 1531575055 -1534996717 -2004429643 1785492850 -1689407456 1441161827 -572295787
REM
REM S 3|1.8|5|6|7|30:31:32(qc=5)
REM O 2|1.5|12|13|15|20:21(qc=5)
REM Li 1|1.3|8|9|10|10U:20(qc=5)
REM Fe 3|2.2|2.0|1.0|8|9|10|40:41:32(qc=5)
REM 
CELL 1.54180    5.28180    5.28180   12.09824   90.00000   90.00000   90.00000
LATT -1
SFAC Li O  S  Fe 
Li     1 -0.2268000000000 -0.2511640000000  0.0245160000000 1.0  -0.04
Li     1  0.2268000000000  0.2511640000000  0.0245160000000 1.0  -0.04
Li     1 -0.2511640000000  0.2268000000000  0.0245160000000 1.0  -0.04
Li     1  0.2511640000000 -0.2268000000000  0.0245160000000 1.0  -0.04
Li     1  0.0000000000000 -0.5000000000000  0.2201320000000 1.0  -0.08
Li     1  0.5000000000000  0.0000000000000  0.2201320000000 1.0  -0.08
O      2  0.2242080000000 -0.2252700000000  0.1747360000000 1.0   1.09
O      2 -0.2242080000000  0.2252700000000  0.1747360000000 1.0   1.09
O      2 -0.2252700000000 -0.2242080000000  0.1747360000000 1.0   1.09
O      2  0.2252700000000  0.2242080000000  0.1747360000000 1.0   1.09
O      2 -0.1656910000000 -0.3340500000000 -0.4561030000000 1.0  -0.07
O      2  0.1656910000000  0.3340500000000 -0.4561030000000 1.0  -0.07
O      2 -0.3340500000000  0.1656910000000 -0.4561030000000 1.0  -0.07
O      2  0.3340500000000 -0.1656910000000 -0.4561030000000 1.0  -0.07
O      2  0.0000000000000 -0.5000000000000 -0.0354450000000 1.0   0.06
O      2 -0.5000000000000  0.0000000000000 -0.0354450000000 1.0   0.06
S      3  0.5000000000000  0.0000000000000  0.4676200000000 1.0  -0.41
S      3  0.0000000000000  0.5000000000000  0.4676200000000 1.0  -0.41
Fe     4  0.2696790000000 -0.2302730000000 -0.3033420000000 1.0   2.73
Fe     4 -0.2696790000000  0.2302730000000 -0.3033420000000 1.0   2.73
Fe     4 -0.2302730000000 -0.2696790000000 -0.3033420000000 1.0   2.73
Fe     4  0.2302730000000  0.2696790000000 -0.3033420000000 1.0   2.73
Fe     4  0.0000000000000  0.5000000000000 -0.1802620000000 1.0   2.10
Fe     4 -0.5000000000000  0.0000000000000 -0.1802620000000 1.0   2.10
END
