TITL LFSO-Li4Fe3SO4-200930-164146-a2f387 0.0285 341.173765 -1.08919993E+004 -20.1142 20.6457 24 (P-1) n - 1
REM
REM Run started: Thu, 01 Oct 2020 09:08:51 +0100 in /lustre/scratch/uccabz1/launch_tmp/launcher_2020-09-30-15-41-44-474442
REM CASTEP 20.1 from code version af48c487+ pr-geom-scf-spinfix Tue Jun 2 15:39:59 2020 +0100
REM Functional Perdew Burke Ernzerhof Relativity Koelling-Harmon Dispersion off
REM Cut-off 340.0000 eV Grid scale 1.7500 Gmax 16.5316 1/A FBSC none
REM MP grid 2 2 4 Offset 0.000 0.000 0.000 No. kpts 8 Spacing 0.07
REM Total runtime: 51102.9 s
REM Overall efficiency: 89.9091 %
REM
REM
REM
REM compiler GCC version 4.9.2
REM options -cpp -iprefix /lustre/shared/ucl/apps/gcc/4.9.2/bin/../lib/gcc/x86_64-unknown-linux-gnu/4.9.2/ -mtune=corei7 -march=x86-64 -g -Og
REM COMMAND_LINE
REM seed 744201144 -938692929 -1664243132 -1570891367 318259131 603149399 -747201558 -562235620 54775477 860532271 425372366 1705780369
REM
REM S 3|1.8|5|6|7|30:31:32(qc=5)
REM O 2|1.5|12|13|15|20:21(qc=5)
REM Li 1|1.3|8|9|10|10U:20(qc=5)
REM Fe 3|2.2|2.0|1.0|8|9|10|40:41:32(qc=5)
REM 
CELL 1.54180    9.22413    9.65324    5.51345   53.79548   64.96642   61.50849
LATT -1
SFAC Li O  S  Fe 
Li     1 -0.2931030000000  0.1708150000000 -0.3800900000000 1.0   0.03
Li     1  0.2931030000000 -0.1708150000000  0.3800900000000 1.0   0.03
Li     1  0.1988750000000 -0.0887140000000 -0.2226620000000 1.0   0.03
Li     1 -0.1988750000000  0.0887140000000  0.2226620000000 1.0   0.03
Li     1 -0.3631320000000 -0.5194340000000  0.1352650000000 1.0  -0.00
Li     1  0.3631320000000  0.5194340000000 -0.1352650000000 1.0  -0.00
Li     1  0.1026710000000 -0.4431480000000  0.2680200000000 1.0  -0.01
Li     1 -0.1026710000000  0.4431480000000 -0.2680200000000 1.0  -0.01
O      2  0.6778980000000  0.0849560000000  0.0356290000000 1.0  -0.30
O      2 -0.6778980000000 -0.0849560000000 -0.0356290000000 1.0  -0.30
O      2 -0.2465100000000 -0.0814820000000 -0.3224030000000 1.0  -0.16
O      2  0.2465100000000  0.0814820000000  0.3224030000000 1.0  -0.16
O      2 -0.1611350000000  0.2862650000000  0.2001010000000 1.0  -0.13
O      2  0.1611350000000 -0.2862650000000 -0.2001010000000 1.0  -0.13
O      2  0.0065760000000  0.3678730000000  0.4317260000000 1.0  -0.32
O      2 -0.0065760000000 -0.3678730000000 -0.4317260000000 1.0  -0.32
S      3  0.4114520000000 -0.6580890000000  0.3891620000000 1.0  -0.16
S      3 -0.4114520000000  0.6580890000000 -0.3891620000000 1.0  -0.16
Fe     4  0.3371870000000  0.1384570000000 -0.1247650000000 1.0  -3.27
Fe     4 -0.3371870000000 -0.1384570000000  0.1247650000000 1.0  -3.27
Fe     4 -0.0299210000000 -0.2409450000000 -0.2886120000000 1.0  -2.60
Fe     4  0.0299210000000  0.2409450000000  0.2886120000000 1.0  -2.60
Fe     4 -0.4528070000000 -0.1286650000000 -0.2326760000000 1.0  -3.16
Fe     4  0.4528070000000  0.1286650000000  0.2326760000000 1.0  -3.16
END
