TITL LFSO-Li2FeSO-200912-061351-7f4ba3 0.0496 204.861818 -6.01664818E+003 11.5913 11.7712 15 (P32) n - 1
REM
REM Run started: Sat, 12 Sep 2020 09:31:01 +0100 in /lustre/scratch/uccabz1/launch_tmp/launcher_2020-09-12-05-13-49-558531
REM CASTEP 20.1 from code version af48c487+ pr-geom-scf-spinfix Tue Jun 2 15:39:59 2020 +0100
REM Functional Perdew Burke Ernzerhof Relativity Koelling-Harmon Dispersion off
REM Cut-off 340.0000 eV Grid scale 1.7500 Gmax 16.5316 1/A FBSC none
REM MP grid 5 2 2 Offset 0.000 0.000 0.000 No. kpts 10 Spacing 0.07
REM Total runtime: 12013.2 s
REM Overall efficiency: 89.5 %
REM
REM
REM
REM compiler GCC version 4.9.2
REM options -cpp -iprefix /lustre/shared/ucl/apps/gcc/4.9.2/bin/../lib/gcc/x86_64-unknown-linux-gnu/4.9.2/ -mtune=corei7 -march=x86-64 -g -Og
REM COMMAND_LINE
REM seed 1390176359 -363425123 -239224855 -787993587 -323377825 292669986 -121697716 -2058460368 599071710 158802332 -1653718563 -997973868
REM
REM S 3|1.8|5|6|7|30:31:32(qc=5)
REM O 2|1.5|12|13|15|20:21(qc=5)
REM Li 1|1.3|8|9|10|10U:20(qc=5)
REM Fe 3|2.2|2.0|1.0|8|9|10|40:41:32(qc=5)
REM 
CELL 1.54180    3.36576    8.38346    8.38346  120.00000   90.00000   90.00000
LATT -1
SFAC Li O  S  Fe 
Li     1 -0.5269190000000  0.1968970000000  0.4879660000000 1.0   0.02
Li     1  0.1397480000000 -0.4879660000000 -0.2910690000000 1.0   0.02
Li     1 -0.1935850000000  0.2910690000000 -0.1968970000000 1.0   0.02
Li     1  0.0222360000000 -0.0443300000000  0.5193350000000 1.0   0.01
Li     1 -0.3110970000000 -0.5193350000000  0.4363350000000 1.0   0.01
Li     1  0.3555700000000 -0.4363350000000  0.0443300000000 1.0   0.01
O      2  0.7173200000000 -0.4542370000000 -0.1285980000000 1.0   0.25
O      2  0.3839870000000  0.1285980000000 -0.3256390000000 1.0   0.25
O      2  0.0506530000000  0.3256390000000  0.4542370000000 1.0   0.25
S      3  0.2194750000000 -0.1038000000000  0.2067410000000 1.0   0.25
S      3 -0.1138580000000 -0.2067410000000 -0.3105420000000 1.0   0.25
S      3 -0.4471910000000  0.3105420000000  0.1038000000000 1.0   0.25
Fe     4  0.0717860000000  0.1666920000000  0.1876800000000 1.0   3.33
Fe     4 -0.2615470000000 -0.1876800000000 -0.0209880000000 1.0   3.33
Fe     4  0.4051190000000  0.0209880000000 -0.1666920000000 1.0   3.33
END
