TITL LFSO-Li6FeSO3-200909-221904-6d772a 0.0414 500.803149 -7.35568281E+003 -3.99012 4.68675 22 (R3) n - 1
REM
REM Run started: Thu, 10 Sep 2020 09:25:52 +0100 in /lustre/scratch/uccabz1/launch_tmp/launcher_2020-09-09-21-19-03-242594
REM CASTEP 20.1 from code version af48c487+ pr-geom-scf-spinfix Tue Jun 2 15:39:59 2020 +0100
REM Functional Perdew Burke Ernzerhof Relativity Koelling-Harmon Dispersion off
REM Cut-off 340.0000 eV Grid scale 1.7500 Gmax 16.5316 1/A FBSC none
REM MP grid 2 2 3 Offset 0.000 0.000 0.000 No. kpts 6 Spacing 0.07
REM Total runtime: 40234.6 s
REM Overall efficiency: 97.7778 %
REM
REM
REM
REM compiler GCC version 4.9.2
REM options -cpp -iprefix /lustre/shared/ucl/apps/gcc/4.9.2/bin/../lib/gcc/x86_64-unknown-linux-gnu/4.9.2/ -mtune=corei7 -march=x86-64 -g -Og
REM COMMAND_LINE
REM seed 1399713481 -1549682751 -118023925 1585090669 1108336818 -1232515414 1303790505 1856522008 -1999240527 -534575553 -1054629054 749085130
REM
REM S 3|1.8|5|6|7|30:31:32(qc=5)
REM O 2|1.5|12|13|15|20:21(qc=5)
REM Li 1|1.3|8|9|10|10U:20(qc=5)
REM Fe 3|2.2|2.0|1.0|8|9|10|40:41:32(qc=5)
REM 
CELL 1.54180    9.21972    9.21972    8.63802   57.74614   57.74614   60.00000
LATT -1
SFAC Li O  S  Fe 
Li     1  0.1549310000000  0.2095380000000  0.0923840000000 1.0  -0.00
Li     1  0.2095380000000 -0.4568530000000  0.0923840000000 1.0  -0.00
Li     1 -0.4568530000000  0.1549310000000  0.0923840000000 1.0  -0.00
Li     1 -0.2077020000000 -0.2739960000000  0.2939780000000 1.0  -0.01
Li     1 -0.2739960000000  0.1877200000000  0.2939780000000 1.0  -0.01
Li     1  0.1877200000000 -0.2077020000000  0.2939780000000 1.0  -0.01
Li     1  0.1442990000000 -0.1105460000000 -0.4460350000000 1.0   0.04
Li     1 -0.1105460000000  0.4122820000000 -0.4460350000000 1.0   0.04
Li     1  0.4122820000000  0.1442990000000 -0.4460350000000 1.0   0.04
Li     1  0.4731070000000 -0.3556090000000 -0.4623680000000 1.0   0.00
Li     1 -0.3556090000000  0.3448700000000 -0.4623680000000 1.0   0.00
Li     1  0.3448700000000  0.4731070000000 -0.4623680000000 1.0   0.00
O      2  0.2819000000000 -0.2839040000000  0.4660040000000 1.0  -0.00
O      2 -0.2839040000000 -0.4640000000000  0.4660040000000 1.0  -0.00
O      2 -0.4640000000000  0.2819000000000  0.4660040000000 1.0  -0.00
O      2  0.0672980000000 -0.2717420000000  0.1974030000000 1.0  -0.08
O      2 -0.2717420000000  0.0070410000000  0.1974030000000 1.0  -0.08
O      2  0.0070410000000  0.0672980000000  0.1974030000000 1.0  -0.08
S      3  0.1666820000000  0.1666820000000  0.4999550000000 1.0  -0.06
S      3  0.3645040000000  0.3645040000000 -0.0935120000000 1.0   0.00
Fe     4 -0.0454030000000 -0.0454030000000  0.1362090000000 1.0  -0.68
Fe     4  0.0610710000000  0.0610710000000 -0.1832140000000 1.0  -3.10
END
