TITL LFSO-Li6FeS2O2-200920-202738-c9c68c 0.2448 435.809585 -7.09676691E+003 7.99938 8.53053 22 (C2) n - 1
REM
REM Run started: Mon, 21 Sep 2020 13:00:38 +0100 in /lustre/scratch/uccabz1/launch_tmp/launcher_2020-09-20-19-27-37-316597
REM CASTEP 20.1 from code version af48c487+ pr-geom-scf-spinfix Tue Jun 2 15:39:59 2020 +0100
REM Functional Perdew Burke Ernzerhof Relativity Koelling-Harmon Dispersion off
REM Cut-off 340.0000 eV Grid scale 1.7500 Gmax 16.5316 1/A FBSC none
REM MP grid 3 3 3 Offset 0.000 0.000 0.000 No. kpts 10 Spacing 0.07
REM Total runtime: 66007.2 s
REM Overall efficiency: 68.4167 %
REM
REM
REM
REM compiler GCC version 4.9.2
REM options -cpp -iprefix /lustre/shared/ucl/apps/gcc/4.9.2/bin/../lib/gcc/x86_64-unknown-linux-gnu/4.9.2/ -mtune=corei7 -march=x86-64 -g -Og
REM COMMAND_LINE
REM seed 327415340 -2067252077 355131837 -1811745626 -1097141352 2000332277 1098405468 -858763913 894244145 2045320859 1244931988 1262172947
REM
REM S 3|1.8|5|6|7|30:31:32(qc=5)
REM O 2|1.5|12|13|15|20:21(qc=5)
REM Li 1|1.3|8|9|10|10U:20(qc=5)
REM Fe 3|2.2|2.0|1.0|8|9|10|40:41:32(qc=5)
REM 
CELL 1.54180    9.44967   11.88372   11.88372   32.69193   40.15366   40.15366
LATT -1
SFAC Li O  S  Fe 
Li     1  0.7108260000000 -0.4610180000000  0.2226730000000 1.0  -0.04
Li     1 -0.7108260000000 -0.2226730000000  0.4610180000000 1.0  -0.04
Li     1  0.1242180000000 -0.7856130000000  0.3370630000000 1.0   0.07
Li     1 -0.1242180000000 -0.3370630000000  0.7856130000000 1.0   0.07
Li     1 -0.6128160000000  0.0627800000000 -0.1825240000000 1.0  -0.01
Li     1  0.6128160000000  0.1825240000000 -0.0627800000000 1.0  -0.01
Li     1 -0.2010180000000  0.1761750000000  0.0525590000000 1.0  -0.02
Li     1  0.2010180000000 -0.0525590000000 -0.1761750000000 1.0  -0.02
Li     1  0.3992400000000  0.3188680000000  0.3523280000000 1.0  -0.00
Li     1 -0.3992400000000 -0.3523280000000 -0.3188680000000 1.0  -0.00
Li     1 -0.0623860000000  0.3278920000000 -0.4083920000000 1.0   0.00
Li     1  0.0623860000000  0.4083920000000 -0.3278920000000 1.0   0.00
O      2 -0.1249390000000  0.4464470000000  0.3581520000000 1.0   0.27
O      2  0.1249390000000 -0.3581520000000 -0.4464470000000 1.0   0.27
O      2  0.2598990000000  0.1875970000000 -0.3632910000000 1.0   0.01
O      2 -0.2598990000000  0.3632910000000 -0.1875970000000 1.0   0.01
S      3  0.4852120000000 -0.3392770000000  0.0623720000000 1.0   0.08
S      3 -0.4852120000000 -0.0623720000000  0.3392770000000 1.0   0.08
S      3  0.0917010000000  0.1485990000000  0.0747020000000 1.0   0.24
S      3 -0.0917010000000 -0.0747020000000 -0.1485990000000 1.0   0.24
Fe     4 -0.2052460000000 -0.2639610000000  0.2124970000000 1.0   3.40
Fe     4  0.2052460000000 -0.2124970000000  0.2639610000000 1.0   3.40
END
