TITL LFSO-LiFe3S3O2-200909-121610-06e4ef 0.0534 324.783350 -9.15139376E+003 -13.8178 14.1703 18 (P21) n - 1
REM
REM Run started: Thu, 10 Sep 2020 12:42:57 +0100 in /lustre/scratch/uccabz1/launch_tmp/launcher_2020-09-10-08-42-58-736362
REM CASTEP 20.1 from code version af48c487+ pr-geom-scf-spinfix Tue Jun 2 15:39:59 2020 +0100
REM Functional Perdew Burke Ernzerhof Relativity Koelling-Harmon Dispersion off
REM Cut-off 340.0000 eV Grid scale 1.7500 Gmax 16.5316 1/A FBSC none
REM MP grid 5 2 2 Offset 0.000 0.000 0.000 No. kpts 6 Spacing 0.07
REM Total runtime: 92050.2 s
REM Overall efficiency: 97.9091 %
REM
REM
REM
REM compiler GCC version 4.9.2
REM options -cpp -iprefix /lustre/shared/ucl/apps/gcc/4.9.2/bin/../lib/gcc/x86_64-unknown-linux-gnu/4.9.2/ -mtune=corei7 -march=x86-64 -g -Og
REM COMMAND_LINE
REM seed 2006533370 354449269 -1594637625 -733566861 1533697506 -921730815 986074573 2070050657 1393540788 917114763 -2142434855 -57379
REM
REM S 3|1.8|5|6|7|30:31:32(qc=5)
REM O 2|1.5|12|13|15|20:21(qc=5)
REM Li 1|1.3|8|9|10|10U:20(qc=5)
REM Fe 3|2.2|2.0|1.0|8|9|10|40:41:32(qc=5)
REM 
CELL 1.54180    3.44252    8.38712   11.25112   91.17436   90.00000   90.00000
LATT -1
SFAC Li O  S  Fe 
Li     1 -0.1799290000000 -0.3366910000000  0.2689230000000 1.0   0.02
Li     1  0.3200710000000  0.3366910000000 -0.2689230000000 1.0   0.02
O      2 -0.2011680000000 -0.0705350000000 -0.3533490000000 1.0  -0.08
O      2 -0.7011680000000  0.0705350000000  0.3533490000000 1.0  -0.08
O      2  0.3159660000000 -0.4314410000000 -0.2893690000000 1.0  -0.26
O      2 -0.1840340000000  0.4314410000000  0.2893690000000 1.0  -0.26
S      3 -0.2177940000000  0.1798090000000  0.0035730000000 1.0  -0.00
S      3  0.2822060000000 -0.1798090000000 -0.0035730000000 1.0  -0.00
S      3  0.2400040000000  0.3200700000000 -0.0469430000000 1.0  -0.00
S      3 -0.2599960000000 -0.3200700000000  0.0469430000000 1.0  -0.00
S      3 -0.1922910000000  0.3219410000000 -0.4306540000000 1.0  -0.12
S      3  0.3077090000000 -0.3219410000000  0.4306540000000 1.0  -0.12
Fe     4  0.3162830000000  0.4234300000000  0.3422660000000 1.0  -3.14
Fe     4 -0.1837170000000 -0.4234300000000 -0.3422660000000 1.0  -3.14
Fe     4 -0.2000760000000  0.0327970000000  0.3955320000000 1.0  -2.53
Fe     4  0.2999240000000 -0.0327970000000 -0.3955320000000 1.0  -2.53
Fe     4  0.3046310000000  0.2009220000000  0.4908770000000 1.0  -0.80
Fe     4 -0.1953690000000 -0.2009220000000 -0.4908770000000 1.0  -0.80
END
