TITL LFSO-Li2Fe3S3O-200912-185501-83731b 0.0614 264.115932 -8.68015574E+003 -1.01963 2.31757 18 (R3) n - 1
REM
REM Run started: Sun, 13 Sep 2020 09:39:58 +0100 in /lustre/scratch/uccabz1/launch_tmp/launcher_2020-09-12-17-54-58-878927
REM CASTEP 20.1 from code version af48c487+ pr-geom-scf-spinfix Tue Jun 2 15:39:59 2020 +0100
REM Functional Perdew Burke Ernzerhof Relativity Koelling-Harmon Dispersion off
REM Cut-off 340.0000 eV Grid scale 1.7500 Gmax 16.5316 1/A FBSC none
REM MP grid 3 3 3 Offset 0.000 0.000 0.000 No. kpts 6 Spacing 0.07
REM Total runtime: 39963.1 s
REM Overall efficiency: 97.8571 %
REM
REM
REM
REM compiler GCC version 4.9.2
REM options -cpp -iprefix /lustre/shared/ucl/apps/gcc/4.9.2/bin/../lib/gcc/x86_64-unknown-linux-gnu/4.9.2/ -mtune=corei7 -march=x86-64 -g -Og
REM COMMAND_LINE
REM seed 844626888 671032717 226039510 1072494233 -1663170156 434879142 -1035032603 -352030402 1948029313 -1096944696 -428029686 121116675
REM
REM S 3|1.8|5|6|7|30:31:32(qc=5)
REM O 2|1.5|12|13|15|20:21(qc=5)
REM Li 1|1.3|8|9|10|10U:20(qc=5)
REM Fe 3|2.2|2.0|1.0|8|9|10|40:41:32(qc=5)
REM 
CELL 1.54180    6.42227    6.42227    6.42227   92.49239   92.49239   92.49239
LATT -1
SFAC Li O  S  Fe 
Li     1 -0.3486070000000  0.2693220000000  0.4404690000000 1.0   0.00
Li     1  0.2693220000000  0.4404690000000 -0.3486070000000 1.0   0.00
Li     1  0.4404690000000 -0.3486070000000  0.2693220000000 1.0   0.00
Li     1 -0.0433460000000 -0.0433460000000 -0.0433460000000 1.0   0.03
O      2  0.1335020000000  0.1335020000000  0.1335020000000 1.0   0.01
O      2 -0.4045150000000 -0.4045150000000 -0.4045150000000 1.0  -0.01
S      3 -0.1291930000000  0.0334040000000 -0.3957430000000 1.0   0.01
S      3  0.0334040000000 -0.3957430000000 -0.1291930000000 1.0   0.01
S      3 -0.3957430000000 -0.1291930000000  0.0334040000000 1.0   0.01
S      3  0.3368950000000  0.0818860000000  0.6131720000000 1.0   0.00
S      3  0.0818860000000  0.6131720000000  0.3368950000000 1.0   0.00
S      3  0.6131720000000  0.3368950000000  0.0818860000000 1.0   0.00
Fe     4 -0.1157510000000 -0.3062520000000 -0.4208680000000 1.0  -0.04
Fe     4 -0.3062520000000 -0.4208680000000 -0.1157510000000 1.0  -0.04
Fe     4 -0.4208680000000 -0.1157510000000 -0.3062520000000 1.0  -0.04
Fe     4  0.3740810000000  0.0969110000000 -0.0345460000000 1.0  -0.38
Fe     4  0.0969110000000 -0.0345460000000  0.3740810000000 1.0  -0.38
Fe     4 -0.0345460000000  0.3740810000000  0.0969110000000 1.0  -0.38
END
