TITL LFSO-LiFe3S3O2-200909-151643-0c7829 0.1213 361.863565 -9.15347038E+003 -4.75441 15.9021 18 (C2) n - 1
REM
REM Run started: Sat, 12 Sep 2020 08:35:16 +0100 in /lustre/scratch/uccabz1/launch_tmp/launcher_2020-09-12-06-50-28-377755
REM CASTEP 20.1 from code version af48c487+ pr-geom-scf-spinfix Tue Jun 2 15:39:59 2020 +0100
REM Functional Perdew Burke Ernzerhof Relativity Koelling-Harmon Dispersion off
REM Cut-off 340.0000 eV Grid scale 1.7500 Gmax 16.5316 1/A FBSC none
REM MP grid 3 3 2 Offset 0.000 0.000 0.000 No. kpts 6 Spacing 0.07
REM Total runtime: 77056.6 s
REM Overall efficiency: 84 %
REM
REM
REM
REM compiler GCC version 4.9.2
REM options -cpp -iprefix /lustre/shared/ucl/apps/gcc/4.9.2/bin/../lib/gcc/x86_64-unknown-linux-gnu/4.9.2/ -mtune=corei7 -march=x86-64 -g -Og
REM COMMAND_LINE
REM seed -828051478 2094534572 784977197 572110935 381277873 1148631262 -1686203584 654166960 -920582861 -1951234337 893336686 -85984789
REM
REM S 3|1.8|5|6|7|30:31:32(qc=5)
REM O 2|1.5|12|13|15|20:21(qc=5)
REM Li 1|1.3|8|9|10|10U:20(qc=5)
REM Fe 3|2.2|2.0|1.0|8|9|10|40:41:32(qc=5)
REM 
CELL 1.54180    6.08329    6.08329   11.81960   98.97025   98.97025  119.53328
LATT -1
SFAC Li O  S  Fe 
Li     1  0.0571440000000  0.0265050000000  0.1506070000000 1.0   0.02
Li     1 -0.0265050000000 -0.0571440000000 -0.1506070000000 1.0   0.02
O      2  0.5545510000000  0.0274100000000 -0.4304850000000 1.0   0.09
O      2 -0.0274100000000 -0.5545510000000  0.4304850000000 1.0   0.09
O      2  0.1385600000000  0.1688280000000  0.3109240000000 1.0  -0.07
O      2 -0.1688280000000 -0.1385600000000 -0.3109240000000 1.0  -0.07
S      3 -0.0960660000000  0.4924840000000  0.1713440000000 1.0  -0.13
S      3 -0.4924840000000  0.0960660000000 -0.1713440000000 1.0  -0.13
S      3  0.2529270000000  0.4414880000000 -0.3067940000000 1.0  -0.04
S      3 -0.4414880000000 -0.2529270000000  0.3067940000000 1.0  -0.04
S      3  0.1004560000000  0.4152660000000 -0.0559770000000 1.0   0.01
S      3 -0.4152660000000 -0.1004560000000  0.0559770000000 1.0   0.01
Fe     4 -0.4869500000000 -0.1603290000000 -0.3219140000000 1.0  -2.58
Fe     4  0.1603290000000  0.4869500000000  0.3219140000000 1.0  -2.58
Fe     4 -0.1253700000000  0.0904120000000 -0.3986050000000 1.0   2.46
Fe     4 -0.0904120000000  0.1253700000000  0.3986050000000 1.0   2.46
Fe     4  0.2814300000000 -0.3547640000000  0.1367680000000 1.0  -2.13
Fe     4  0.3547640000000 -0.2814300000000 -0.1367680000000 1.0  -2.13
END
