TITL LFSO-Li3FeS2O-200911-180107-935b56 0.0055 141.174398 -2.50668740E+003 3.26474 3.48337 7 (R3) n - 1
REM
REM Run started: Fri, 11 Sep 2020 18:21:23 +0100 in /lustre/scratch/uccabz1/launch_tmp/launcher_2020-09-11-17-01-06-158866
REM CASTEP 20.1 from code version af48c487+ pr-geom-scf-spinfix Tue Jun 2 15:39:59 2020 +0100
REM Functional Perdew Burke Ernzerhof Relativity Koelling-Harmon Dispersion off
REM Cut-off 340.0000 eV Grid scale 1.7500 Gmax 16.5316 1/A FBSC none
REM MP grid 3 3 3 Offset 0.000 0.000 0.000 No. kpts 6 Spacing 0.07
REM Total runtime: 1382.19 s
REM Overall efficiency: 89.8333 %
REM
REM
REM
REM compiler GCC version 4.9.2
REM options -cpp -iprefix /lustre/shared/ucl/apps/gcc/4.9.2/bin/../lib/gcc/x86_64-unknown-linux-gnu/4.9.2/ -mtune=corei7 -march=x86-64 -g -Og
REM COMMAND_LINE
REM seed 546714978 -1587369462 1100576604 -1320324243 -2024041195 1901109769 2081884878 -1496282136 -494505082 -129353501 1562413206 -1074926231
REM
REM S 3|1.8|5|6|7|30:31:32(qc=5)
REM O 2|1.5|12|13|15|20:21(qc=5)
REM Li 1|1.3|8|9|10|10U:20(qc=5)
REM Fe 3|2.2|2.0|1.0|8|9|10|40:41:32(qc=5)
REM 
CELL 1.54180    5.30912    5.30912    5.30912   78.10001   78.10001   78.10001
LATT -1
SFAC Li O  S  Fe 
Li     1  0.5181250000000 -0.2443170000000  0.2187180000000 1.0  -0.06
Li     1 -0.2443170000000  0.2187180000000  0.5181250000000 1.0  -0.06
Li     1  0.2187180000000  0.5181250000000 -0.2443170000000 1.0  -0.06
O      2 -0.5446820000000 -0.5446820000000 -0.5446820000000 1.0   0.15
S      3  0.0940720000000  0.0940720000000  0.0940720000000 1.0   0.19
S      3 -0.1022570000000 -0.1022570000000 -0.1022570000000 1.0   0.06
Fe     4  0.2918220000000  0.2918220000000  0.2918220000000 1.0   3.02
END
