TITL LFSO-Li2Fe3S3O-200912-200923-f694d9 0.0128 176.827608 -4.33985093E+003 6.30934 6.78540 9 (R3) n - 1
REM
REM Run started: Sat, 12 Sep 2020 21:32:48 +0100 in /lustre/scratch/uccabz1/launch_tmp/launcher_2020-09-12-19-09-21-908323
REM CASTEP 20.1 from code version af48c487+ pr-geom-scf-spinfix Tue Jun 2 15:39:59 2020 +0100
REM Functional Perdew Burke Ernzerhof Relativity Koelling-Harmon Dispersion off
REM Cut-off 340.0000 eV Grid scale 1.7500 Gmax 16.5316 1/A FBSC none
REM MP grid 3 3 3 Offset 0.000 0.000 0.000 No. kpts 6 Spacing 0.07
REM Total runtime: 6588.99 s
REM Overall efficiency: 95.2857 %
REM
REM
REM
REM compiler GCC version 4.9.2
REM options -cpp -iprefix /lustre/shared/ucl/apps/gcc/4.9.2/bin/../lib/gcc/x86_64-unknown-linux-gnu/4.9.2/ -mtune=corei7 -march=x86-64 -g -Og
REM COMMAND_LINE
REM seed -362231745 2051123874 -608725156 -1245069366 1644813747 -1906462463 1291422016 571545158 -1090637584 -264074795 2072584104 2109679305
REM
REM S 3|1.8|5|6|7|30:31:32(qc=5)
REM O 2|1.5|12|13|15|20:21(qc=5)
REM Li 1|1.3|8|9|10|10U:20(qc=5)
REM Fe 3|2.2|2.0|1.0|8|9|10|40:41:32(qc=5)
REM 
CELL 1.54180    6.45708    6.45708    6.45708   56.91664   56.91664   56.91664
LATT -1
SFAC Li O  S  Fe 
Li     1  0.5092980000000  0.5092980000000  0.5092980000000 1.0  -0.07
Li     1  0.1678170000000  0.1678170000000  0.1678170000000 1.0  -0.03
O      2  0.0541990000000  0.0541990000000  0.0541990000000 1.0   0.13
S      3 -0.0559930000000 -0.4551650000000  0.3448760000000 1.0  -0.00
S      3  0.3448760000000 -0.0559930000000 -0.4551650000000 1.0  -0.00
S      3 -0.4551650000000  0.3448760000000 -0.0559930000000 1.0  -0.00
Fe     4 -0.0185210000000  0.2328550000000 -0.2720320000000 1.0   2.10
Fe     4 -0.2720320000000 -0.0185210000000  0.2328550000000 1.0   2.10
Fe     4  0.2328550000000 -0.2720320000000 -0.0185210000000 1.0   2.10
END
