TITL LFSO-Li4Fe3S2O3-201001-210127-cd8506 0.0478 375.298781 -1.06173217E+004 14.0678 15.2468 24 (P3) n - 1
REM
REM Run started: Fri, 02 Oct 2020 05:56:02 +0100 in /lustre/scratch/uccabz1/launch_tmp/launcher_2020-10-01-20-01-25-982653
REM CASTEP 20.1 from code version af48c487+ pr-geom-scf-spinfix Tue Jun 2 15:39:59 2020 +0100
REM Functional Perdew Burke Ernzerhof Relativity Koelling-Harmon Dispersion off
REM Cut-off 340.0000 eV Grid scale 1.7500 Gmax 16.5316 1/A FBSC none
REM MP grid 3 3 2 Offset 0.000 0.000 0.000 No. kpts 5 Spacing 0.07
REM Total runtime: 34094.9 s
REM Overall efficiency: 67.6667 %
REM
REM
REM
REM compiler GCC version 4.9.2
REM options -cpp -iprefix /lustre/shared/ucl/apps/gcc/4.9.2/bin/../lib/gcc/x86_64-unknown-linux-gnu/4.9.2/ -mtune=corei7 -march=x86-64 -g -Og
REM COMMAND_LINE
REM seed -808071246 2132405429 -1972987381 -1962874987 -1289448623 -187900778 -44817428 -1498097184 2049788182 1151445871 1642738755 1386671430
REM
REM S 3|1.8|5|6|7|30:31:32(qc=5)
REM O 2|1.5|12|13|15|20:21(qc=5)
REM Li 1|1.3|8|9|10|10U:20(qc=5)
REM Fe 3|2.2|2.0|1.0|8|9|10|40:41:32(qc=5)
REM 
CELL 1.54180    7.76228    7.76228    7.19230   90.00000   90.00000  120.00000
LATT -1
SFAC Li O  S  Fe 
Li     1  0.2670930000000 -0.0392850000000 -0.1125120000000 1.0  -0.03
Li     1 -0.3063780000000 -0.2670930000000 -0.1125120000000 1.0  -0.03
Li     1  0.0392850000000  0.3063780000000 -0.1125120000000 1.0  -0.03
Li     1  0.5859920000000  0.0835500000000  0.0135400000000 1.0  -0.03
Li     1  0.4975570000000 -0.5859920000000  0.0135400000000 1.0  -0.03
Li     1 -0.0835500000000 -0.4975570000000  0.0135400000000 1.0  -0.03
Li     1  0.3333330000000 -0.3333330000000  0.0116230000000 1.0  -0.01
Li     1  0.3333330000000 -0.3333330000000 -0.2867740000000 1.0   0.00
O      2  0.4510690000000  0.5189740000000 -0.2033250000000 1.0   0.12
O      2  0.0679050000000 -0.4510690000000 -0.2033250000000 1.0   0.12
O      2 -0.5189740000000 -0.0679050000000 -0.2033250000000 1.0   0.12
O      2 -0.2197160000000 -0.3745900000000  0.0801820000000 1.0   0.08
O      2 -0.1548740000000  0.2197160000000  0.0801820000000 1.0   0.08
O      2  0.3745900000000  0.1548740000000  0.0801820000000 1.0   0.08
S      3 -0.4049990000000 -0.2747030000000  0.2650530000000 1.0  -0.01
S      3  0.1302960000000  0.4049990000000  0.2650530000000 1.0  -0.01
S      3  0.2747030000000 -0.1302960000000  0.2650530000000 1.0  -0.01
S      3  0.3333330000000 -0.3333330000000  0.4063540000000 1.0  -0.03
Fe     4  0.5891500000000  0.1260780000000 -0.3852830000000 1.0   2.97
Fe     4 -0.4630710000000 -0.5891500000000 -0.3852830000000 1.0   2.97
Fe     4 -0.1260780000000  0.4630710000000 -0.3852830000000 1.0   2.97
Fe     4 -0.2815420000000 -0.4747610000000  0.3191330000000 1.0   1.62
Fe     4 -0.1932180000000  0.2815420000000  0.3191330000000 1.0   1.62
Fe     4  0.4747610000000  0.1932180000000  0.3191330000000 1.0   1.62
END
