TITL LFSO-Li2Fe4S2O3-200912-075825-87d599 0.0259 170.958571 -5.77321606E+003 -0.441221E-02 0.991621E-02 11 (F222) n - 1
REM
REM Run started: Sat, 12 Sep 2020 11:42:05 +0100 in /lustre/scratch/uccabz1/launch_tmp/launcher_2020-09-12-06-58-23-200011
REM CASTEP 20.1 from code version af48c487+ pr-geom-scf-spinfix Tue Jun 2 15:39:59 2020 +0100
REM Functional Perdew Burke Ernzerhof Relativity Koelling-Harmon Dispersion off
REM Cut-off 340.0000 eV Grid scale 1.7500 Gmax 16.5316 1/A FBSC none
REM MP grid 4 4 2 Offset 0.000 0.000 0.000 No. kpts 10 Spacing 0.07
REM Total runtime: 13721.6 s
REM Overall efficiency: 84.5 %
REM
REM
REM
REM compiler GCC version 4.9.2
REM options -cpp -iprefix /lustre/shared/ucl/apps/gcc/4.9.2/bin/../lib/gcc/x86_64-unknown-linux-gnu/4.9.2/ -mtune=corei7 -march=x86-64 -g -Og
REM COMMAND_LINE
REM seed 1623731785 2006101891 -1417324887 -1542954975 -986225788 958598809 -428545046 1044643646 770706102 -1069086879 464410721 24208084
REM
REM S 3|1.8|5|6|7|30:31:32(qc=5)
REM O 2|1.5|12|13|15|20:21(qc=5)
REM Li 1|1.3|8|9|10|10U:20(qc=5)
REM Fe 3|2.2|2.0|1.0|8|9|10|40:41:32(qc=5)
REM 
CELL 1.54180    4.75985    4.75985    8.22895  104.94761  104.94761   96.20865
LATT -1
SFAC Li O  S  Fe 
Li     1  0.1946000000000 -0.1946000000000  0.0000000000000 1.0
Li     1 -0.1946000000000  0.1946000000000  0.0000000000000 1.0
O      2  0.0940770000000  0.0940770000000  0.1881550000000 1.0
O      2 -0.0940770000000 -0.0940770000000 -0.1881550000000 1.0
O      2  0.2500000000000 -0.2500000000000  0.5000000000000 1.0
S      3 -0.3949190000000 -0.3949190000000  0.2101620000000 1.0
S      3  0.3949190000000  0.3949190000000 -0.2101620000000 1.0
Fe     4  0.1516310000000 -0.0296800000000 -0.3104200000000 1.0
Fe     4 -0.4620520000000 -0.2807400000000 -0.3104200000000 1.0
Fe     4  0.0296800000000 -0.1516310000000  0.3104200000000 1.0
Fe     4  0.2807400000000  0.4620520000000  0.3104200000000 1.0
END
