TITL LFSO-Li4Fe3S2O3-200928-063634-f3032a 0.0000 160.561897 -5.30922396E+003 9.88169 10.1392 12 (Imm2) n - 1
REM
REM Run started: Mon, 28 Sep 2020 08:45:04 +0100 in /scratch/scratch/uccabz1/launch_tmp/launcher_2020-09-28-05-36-32-274641
REM CASTEP 19.11| from code version Version unavailable
REM Functional Perdew Burke Ernzerhof Relativity Koelling-Harmon Dispersion off
REM Cut-off 340.0000 eV Grid scale 1.7500 Gmax 16.5316 1/A FBSC none
REM MP grid 4 3 3 Offset 0.000 0.000 0.000 No. kpts 18 Spacing 0.07
REM Total runtime: 8998.91 s
REM Overall efficiency: 97.3333 %
REM
REM
REM
REM compiler GCC version 4.9.2
REM options -cpp -iprefix /scratch/UCL/applications/gcc/4.9.2/bin/../lib/gcc/x86_64-unknown-linux-gnu/4.9.2/ -mtune=corei7 -march=x86-64 -g -O2
REM COMMAND_LINE
REM seed -937957803 -1911097771 2098948617 -1974506643 -498294032 870349519 1050118374 -380994314 1441187413 -52037992 1826946005 746944402
REM
REM S 3|1.8|5|6|7|30:31:32(qc=5)
REM O 2|1.5|12|13|15|20:21(qc=5)
REM Li 1|1.3|8|9|10|10U:20(qc=5)
REM Fe 3|2.2|2.0|1.0|8|9|10|40:41:32(qc=5)
REM 
CELL 1.54180    6.04403    6.04403    6.04403   93.53982  118.08887  117.86677
LATT -1
SFAC Li O  S  Fe 
Li     1 -0.0773500000000  0.0188670000000 -0.4991500000000 1.0  -0.03
Li     1  0.0773500000000  0.5781990000000  0.0962170000000 1.0  -0.03
Li     1  0.4819830000000  0.5781990000000 -0.4991500000000 1.0  -0.03
Li     1 -0.4819830000000  0.0188670000000  0.0962170000000 1.0  -0.03
O      2 -0.2488920000000 -0.3554610000000 -0.1065690000000 1.0   0.26
O      2  0.2488920000000  0.1423230000000 -0.1065690000000 1.0   0.26
O      2 -0.5000000000000 -0.2917310000000  0.2082690000000 1.0   0.24
S      3  0.2408210000000 -0.2179320000000 -0.4587530000000 1.0   0.14
S      3 -0.2408210000000  0.3004250000000 -0.4587530000000 1.0   0.14
Fe     4  0.3008380000000 -0.4812220000000 -0.1803830000000 1.0   3.36
Fe     4 -0.3008380000000 -0.4812220000000  0.2179400000000 1.0   3.36
Fe     4  0.0000000000000 -0.2521250000000 -0.2521250000000 1.0   2.24
END
