TITL LFSO-Li4FeS2O-200910-112835-0fae0f 0.0161 158.154256 -2.70895172E+003 4.00000 4.14007 8 (Cm) n - 1
REM
REM Run started: Thu, 10 Sep 2020 12:16:06 +0100 in /lustre/scratch/uccabz1/launch_tmp/launcher_2020-09-10-10-28-32-472132
REM CASTEP 20.1 from code version af48c487+ pr-geom-scf-spinfix Tue Jun 2 15:39:59 2020 +0100
REM Functional Perdew Burke Ernzerhof Relativity Koelling-Harmon Dispersion off
REM Cut-off 340.0000 eV Grid scale 1.7500 Gmax 16.5316 1/A FBSC none
REM MP grid 3 3 5 Offset 0.000 0.000 0.000 No. kpts 16 Spacing 0.07
REM Total runtime: 3343.43 s
REM Overall efficiency: 88.75 %
REM
REM
REM
REM compiler GCC version 4.9.2
REM options -cpp -iprefix /lustre/shared/ucl/apps/gcc/4.9.2/bin/../lib/gcc/x86_64-unknown-linux-gnu/4.9.2/ -mtune=corei7 -march=x86-64 -g -Og
REM COMMAND_LINE
REM seed 799782138 1033115625 -768225051 983131239 354345524 -1526945023 579963273 1480105106 -813274264 -388380670 -889546411 -1949818543
REM
REM S 3|1.8|5|6|7|30:31:32(qc=5)
REM O 2|1.5|12|13|15|20:21(qc=5)
REM Li 1|1.3|8|9|10|10U:20(qc=5)
REM Fe 3|2.2|2.0|1.0|8|9|10|40:41:32(qc=5)
REM 
CELL 1.54180    6.91738    6.91738    4.64660  122.49364  122.49364   73.91894
LATT -1
SFAC Li O  S  Fe 
Li     1 -0.1199230000000  0.2119790000000  0.0370000000000 1.0   0.01
Li     1  0.2119790000000 -0.1199230000000  0.0370000000000 1.0   0.01
Li     1  0.0750640000000  0.3939150000000 -0.2419940000000 1.0  -0.03
Li     1  0.3939150000000  0.0750640000000 -0.2419940000000 1.0  -0.03
O      2  0.1962070000000  0.1962070000000  0.3970890000000 1.0   0.20
S      3  0.2220400000000 -0.2964030000000 -0.5811900000000 1.0   0.17
S      3 -0.2964030000000  0.2220400000000 -0.5811900000000 1.0   0.17
Fe     4 -0.6149370000000  0.3850630000000  0.4644360000000 1.0   3.50
END
