TITL LFSO-LiFeSO-200909-030656-ff50f2 -0.0250 186.089627 -7.22113127E+003 0.146172 0.509678 16 (Pccm) n - 1
REM
REM Run started: Wed, 09 Sep 2020 06:00:32 +0100 in /lustre/scratch/uccabz1/launch_tmp/launcher_2020-09-09-02-06-53-972255
REM CASTEP 20.1 from code version af48c487+ pr-geom-scf-spinfix Tue Jun 2 15:39:59 2020 +0100
REM Functional Perdew Burke Ernzerhof Relativity Koelling-Harmon Dispersion off
REM Cut-off 340.0000 eV Grid scale 1.7500 Gmax 16.5316 1/A FBSC none
REM MP grid 4 3 2 Offset 0.000 0.000 0.000 No. kpts 4 Spacing 0.07
REM Total runtime: 11707.3 s
REM Overall efficiency: 95.9167 %
REM
REM
REM
REM compiler GCC version 4.9.2
REM options -cpp -iprefix /lustre/shared/ucl/apps/gcc/4.9.2/bin/../lib/gcc/x86_64-unknown-linux-gnu/4.9.2/ -mtune=corei7 -march=x86-64 -g -Og
REM COMMAND_LINE
REM seed 1308413792 -1870401991 -1254354248 -1358563797 -1386829186 -1159338035 906167844 1933859844 335985394 -1649118051 -2062881045 1643333442
REM
REM S 3|1.8|5|6|7|30:31:32(qc=5)
REM O 2|1.5|12|13|15|20:21(qc=5)
REM Li 1|1.3|8|9|10|10U:20(qc=5)
REM Fe 3|2.2|2.0|1.0|8|9|10|40:41:32(qc=5)
REM 
CELL 1.54180    4.34065    5.05246    8.48525   90.00000   90.00000   90.00000
LATT -1
SFAC Li O  S  Fe 
Li     1 -0.2547790000000  0.2765350000000 -0.0885210000000 1.0  -0.00
Li     1  0.2547790000000  0.2765350000000  0.0885210000000 1.0  -0.00
Li     1 -0.2547790000000 -0.2765350000000  0.0885210000000 1.0  -0.00
Li     1  0.2547790000000 -0.2765350000000 -0.0885210000000 1.0  -0.00
O      2  0.2531060000000  0.2621400000000 -0.1325450000000 1.0   0.01
O      2 -0.2531060000000  0.2621400000000  0.1325450000000 1.0   0.01
O      2  0.2531060000000 -0.2621400000000  0.1325450000000 1.0   0.01
O      2 -0.2531060000000 -0.2621400000000 -0.1325450000000 1.0   0.01
S      3  0.2480600000000  0.2491650000000  0.3908200000000 1.0  -0.00
S      3 -0.2480600000000  0.2491650000000 -0.3908200000000 1.0  -0.00
S      3  0.2480600000000 -0.2491650000000 -0.3908200000000 1.0  -0.00
S      3 -0.2480600000000 -0.2491650000000  0.3908200000000 1.0  -0.00
Fe     4  0.2535870000000 -0.1712610000000  0.3354810000000 1.0   0.04
Fe     4 -0.2535870000000 -0.1712610000000 -0.3354810000000 1.0   0.04
Fe     4  0.2535870000000  0.1712610000000 -0.3354810000000 1.0   0.04
Fe     4 -0.2535870000000  0.1712610000000  0.3354810000000 1.0   0.04
END
