TITL LFSO-Li4Fe3S2O3-201001-210344-397460 0.0782 422.372051 -1.06213859E+004 23.9893 24.4445 24 (P1) n - 1
REM
REM Run started: Fri, 02 Oct 2020 02:26:17 +0100 in /scratch/scratch/mmm0366/launch_tmp/launcher_2020-10-01-20-03-43-273127
REM CASTEP 19.11| from code version Version unavailable
REM Functional Perdew Burke Ernzerhof Relativity Koelling-Harmon Dispersion off
REM Cut-off 340.0000 eV Grid scale 1.7500 Gmax 16.5316 1/A FBSC none
REM MP grid 3 2 2 Offset 0.000 0.000 0.000 No. kpts 5 Spacing 0.07
REM Total runtime: 19447 s
REM Overall efficiency: 66.5556 %
REM
REM
REM
REM compiler GCC version 4.9.2
REM options -cpp -iprefix /scratch/UCL/applications/gcc/4.9.2/bin/../lib/gcc/x86_64-unknown-linux-gnu/4.9.2/ -mtune=corei7 -march=x86-64 -g -O2
REM COMMAND_LINE
REM seed 1382533641 1787892932 1279436650 -2042221616 1813812971 -1832468048 1144993398 2056753719 -1025651472 -888087801 130559203 -915867562
REM
REM S 3|1.8|5|6|7|30:31:32(qc=5)
REM O 2|1.5|12|13|15|20:21(qc=5)
REM Li 1|1.3|8|9|10|10U:20(qc=5)
REM Fe 3|2.2|2.0|1.0|8|9|10|40:41:32(qc=5)
REM 
CELL 1.54180    6.40603    9.08768    9.08768   61.03859   69.36227   69.36227
LATT -1
SFAC Li O  S  Fe 
Li     1 -0.2212640000000  0.2740280000000 -0.5442460000000 1.0  -0.02
Li     1 -0.5085180000000 -0.5442460000000  0.2740280000000 1.0  -0.02
Li     1  0.5085180000000 -0.2740280000000  0.5442460000000 1.0  -0.02
Li     1  0.2212640000000  0.5442460000000 -0.2740280000000 1.0  -0.02
Li     1  0.4501120000000  0.0415690000000  0.3096700000000 1.0  -0.01
Li     1  0.1986480000000  0.3096700000000  0.0415690000000 1.0  -0.01
Li     1 -0.1986480000000 -0.0415690000000 -0.3096700000000 1.0  -0.01
Li     1 -0.4501120000000 -0.3096700000000 -0.0415690000000 1.0  -0.01
O      2 -0.1928670000000  0.1862800000000 -0.3197920000000 1.0   0.31
O      2  0.3263790000000 -0.3197920000000  0.1862800000000 1.0   0.31
O      2 -0.3263790000000 -0.1862800000000  0.3197920000000 1.0   0.31
O      2  0.1928670000000  0.3197920000000 -0.1862800000000 1.0   0.31
O      2  0.4049740000000  0.0950260000000  0.0950260000000 1.0   0.47
O      2 -0.4049740000000 -0.0950260000000 -0.0950260000000 1.0   0.47
S      3  0.1221480000000 -0.1686820000000 -0.4879520000000 1.0   0.12
S      3 -0.4655130000000 -0.4879520000000 -0.1686820000000 1.0   0.12
S      3  0.4655130000000  0.1686820000000  0.4879520000000 1.0   0.12
S      3 -0.1221480000000  0.4879520000000  0.1686820000000 1.0   0.12
Fe     4  0.0639000000000 -0.3727320000000  0.2105380000000 1.0   3.43
Fe     4  0.0982950000000  0.2105380000000 -0.3727320000000 1.0   3.43
Fe     4 -0.0982950000000  0.3727320000000 -0.2105380000000 1.0   3.43
Fe     4 -0.0639000000000 -0.2105380000000  0.3727320000000 1.0   3.43
Fe     4 -0.5000000000000  0.1505410000000 -0.1505410000000 1.0   3.89
Fe     4  0.5000000000000 -0.1505410000000  0.1505410000000 1.0   3.89
END
