TITL LFSO-Li3Fe3S2O4-200928-155901-51ec3d 0.0089 295.341683 -1.10943980E+004 10.9189 12.1459 24 (I212121) n - 1
REM
REM Run started: Tue, 29 Sep 2020 10:17:56 +0100 in /lustre/scratch/uccabz1/launch_tmp/launcher_2020-09-28-14-59-00-047468
REM CASTEP 20.1 from code version af48c487+ pr-geom-scf-spinfix Tue Jun 2 15:39:59 2020 +0100
REM Functional Perdew Burke Ernzerhof Relativity Koelling-Harmon Dispersion off
REM Cut-off 340.0000 eV Grid scale 1.7500 Gmax 16.5316 1/A FBSC none
REM MP grid 3 3 3 Offset 0.000 0.000 0.000 No. kpts 8 Spacing 0.07
REM Total runtime: 67014.4 s
REM Overall efficiency: 98.6667 %
REM
REM
REM
REM compiler GCC version 4.9.2
REM options -cpp -iprefix /lustre/shared/ucl/apps/gcc/4.9.2/bin/../lib/gcc/x86_64-unknown-linux-gnu/4.9.2/ -mtune=corei7 -march=x86-64 -g -Og
REM COMMAND_LINE
REM seed 442097179 -1096343154 887854085 -243107266 -2075159042 -1038900479 441248864 -1886946828 1004174773 1874272851 881497070 -1147725145
REM
REM S 3|1.8|5|6|7|30:31:32(qc=5)
REM O 2|1.5|12|13|15|20:21(qc=5)
REM Li 1|1.3|8|9|10|10U:20(qc=5)
REM Fe 3|2.2|2.0|1.0|8|9|10|40:41:32(qc=5)
REM 
CELL 1.54180   10.24574    5.83722    7.69082  112.30225  131.76693   90.00000
LATT -1
SFAC Li O  S  Fe 
Li     1  0.1170680000000 -0.1539880000000  0.4723060000000 1.0  -0.02
Li     1 -0.1447620000000  0.6262940000000  0.4723060000000 1.0  -0.02
Li     1 -0.3552380000000  0.6539880000000 -0.4723060000000 1.0  -0.02
Li     1 -0.6170680000000 -0.1262940000000 -0.4723060000000 1.0  -0.02
Li     1  0.4649120000000  0.2500000000000  0.0000000000000 1.0   0.02
Li     1  0.0350880000000 -0.2500000000000  0.0000000000000 1.0   0.02
O      2 -0.0674990000000 -0.0419440000000 -0.2187630000000 1.0  -0.03
O      2  0.3487370000000 -0.1768190000000 -0.2187630000000 1.0  -0.03
O      2  0.1512630000000 -0.4580560000000  0.2187630000000 1.0  -0.03
O      2 -0.4325010000000 -0.3231810000000  0.2187630000000 1.0  -0.03
O      2  0.0217650000000 -0.0270310000000  0.2425320000000 1.0   0.09
O      2 -0.2792330000000  0.2695620000000  0.2425320000000 1.0   0.09
O      2 -0.2207670000000 -0.4729690000000 -0.2425320000000 1.0   0.09
O      2  0.4782350000000  0.2304380000000 -0.2425320000000 1.0   0.09
S      3 -0.0320340000000  0.0811160000000 -0.3694740000000 1.0  -0.01
S      3  0.1625600000000 -0.4505890000000 -0.3694740000000 1.0  -0.01
S      3  0.3374400000000  0.4188840000000  0.3694740000000 1.0  -0.01
S      3  0.5320340000000 -0.0494110000000  0.3694740000000 1.0  -0.01
Fe     4  0.4593230000000 -0.4576680000000 -0.2354240000000 1.0   1.39
Fe     4 -0.1947470000000  0.2222440000000 -0.2354240000000 1.0   1.39
Fe     4 -0.3052530000000 -0.0423320000000  0.2354240000000 1.0   1.39
Fe     4  0.0406770000000  0.2777560000000  0.2354240000000 1.0   1.39
Fe     4 -0.2303390000000 -0.2500000000000  0.0000000000000 1.0   2.59
Fe     4 -0.2696610000000  0.2500000000000  0.0000000000000 1.0   2.59
END
