TITL LFSO-Li3FeS2O-200911-172414-33ae9a -0.0275 108.804650 -2.50832197E+003 0.907839E-02 0.103443E-01 7 (C222) n - 1
REM
REM Run started: Fri, 11 Sep 2020 17:46:47 +0100 in /lustre/scratch/uccabz1/launch_tmp/launcher_2020-09-11-16-24-11-844793
REM CASTEP 20.1 from code version af48c487+ pr-geom-scf-spinfix Tue Jun 2 15:39:59 2020 +0100
REM Functional Perdew Burke Ernzerhof Relativity Koelling-Harmon Dispersion off
REM Cut-off 340.0000 eV Grid scale 1.7500 Gmax 16.5316 1/A FBSC none
REM MP grid 5 5 2 Offset 0.000 0.000 0.000 No. kpts 9 Spacing 0.07
REM Total runtime: 1632.14 s
REM Overall efficiency: 90.1667 %
REM
REM
REM
REM compiler GCC version 4.9.2
REM options -cpp -iprefix /lustre/shared/ucl/apps/gcc/4.9.2/bin/../lib/gcc/x86_64-unknown-linux-gnu/4.9.2/ -mtune=corei7 -march=x86-64 -g -Og
REM COMMAND_LINE
REM seed -541853749 1432805678 -695396130 1377571271 1536022349 -1375402164 -488214220 -307043042 1808194347 1112500271 -947043374 549070298
REM
REM S 3|1.8|5|6|7|30:31:32(qc=5)
REM O 2|1.5|12|13|15|20:21(qc=5)
REM Li 1|1.3|8|9|10|10U:20(qc=5)
REM Fe 3|2.2|2.0|1.0|8|9|10|40:41:32(qc=5)
REM 
CELL 1.54180    3.52594    3.52594    9.36016   90.00000   90.00000  110.77064
LATT -1
SFAC Li O  S  Fe 
Li     1  0.0000000000000  0.0000000000000  0.3113680000000 1.0   0.00
Li     1  0.0000000000000  0.0000000000000 -0.3113680000000 1.0   0.00
Li     1 -0.5000000000000 -0.5000000000000 -0.5000000000000 1.0   0.00
O      2  0.0000000000000  0.0000000000000  0.5000000000000 1.0   0.00
S      3  0.5000000000000  0.0000000000000  0.1323540000000 1.0  -0.00
S      3  0.0000000000000  0.5000000000000 -0.1323540000000 1.0  -0.00
Fe     4  0.5000000000000  0.5000000000000 -0.0000000000000 1.0   0.01
END
