TITL LFSO-Li4Fe2SO3-200910-232050-16762f 0.0285 273.905355 -8.28351094E+003 -5.61775 6.19204 20 (P3) n - 1
REM
REM Run started: Fri, 11 Sep 2020 02:29:03 +0100 in /lustre/scratch/uccabz1/launch_tmp/launcher_2020-09-10-22-20-48-707322
REM CASTEP 20.1 from code version af48c487+ pr-geom-scf-spinfix Tue Jun 2 15:39:59 2020 +0100
REM Functional Perdew Burke Ernzerhof Relativity Koelling-Harmon Dispersion off
REM Cut-off 340.0000 eV Grid scale 1.7500 Gmax 16.5316 1/A FBSC none
REM MP grid 3 3 2 Offset 0.000 0.000 0.000 No. kpts 5 Spacing 0.07
REM Total runtime: 14102 s
REM Overall efficiency: 78.1429 %
REM
REM
REM
REM compiler GCC version 4.9.2
REM options -cpp -iprefix /lustre/shared/ucl/apps/gcc/4.9.2/bin/../lib/gcc/x86_64-unknown-linux-gnu/4.9.2/ -mtune=corei7 -march=x86-64 -g -Og
REM COMMAND_LINE
REM seed -1944418214 129501270 -95337337 -1265496627 263828888 2046454287 -42741457 -1349628869 102885998 656301155 2123996309 -550359003
REM
REM S 3|1.8|5|6|7|30:31:32(qc=5)
REM O 2|1.5|12|13|15|20:21(qc=5)
REM Li 1|1.3|8|9|10|10U:20(qc=5)
REM Fe 3|2.2|2.0|1.0|8|9|10|40:41:32(qc=5)
REM 
CELL 1.54180    5.89012    5.89012    9.11636   90.00000   90.00000  120.00000
LATT -1
SFAC Li O  S  Fe 
Li     1  0.4052430000000  0.3427830000000  0.2795780000000 1.0  -0.00
Li     1 -0.3427830000000  0.0624610000000  0.2795780000000 1.0  -0.00
Li     1 -0.0624610000000 -0.4052430000000  0.2795780000000 1.0  -0.00
Li     1  0.3343360000000  0.0834130000000  0.0100540000000 1.0   0.03
Li     1 -0.0834130000000  0.2509230000000  0.0100540000000 1.0   0.03
Li     1 -0.2509230000000 -0.3343360000000  0.0100540000000 1.0   0.03
Li     1  0.3333330000000 -0.3333330000000  0.1781610000000 1.0  -0.01
Li     1 -0.0000000000000  0.0000000000000  0.2153430000000 1.0   0.01
O      2 -0.1819310000000  0.1674490000000 -0.4359970000000 1.0   0.00
O      2 -0.1674490000000 -0.3493800000000 -0.4359970000000 1.0   0.00
O      2  0.3493800000000  0.1819310000000 -0.4359970000000 1.0   0.00
O      2 -0.3318920000000 -0.3225570000000  0.2013020000000 1.0  -0.01
O      2  0.3225570000000 -0.0093340000000  0.2013020000000 1.0  -0.01
O      2  0.0093340000000  0.3318920000000  0.2013020000000 1.0  -0.01
S      3  0.3333330000000 -0.3333330000000  0.5423650000000 1.0  -0.13
S      3 -0.0000000000000  0.0000000000000 -0.1548860000000 1.0  -0.01
Fe     4  0.5214110000000  0.0555570000000 -0.3452160000000 1.0  -0.82
Fe     4 -0.0555570000000  0.4658540000000 -0.3452160000000 1.0  -0.82
Fe     4 -0.4658540000000 -0.5214110000000 -0.3452160000000 1.0  -0.82
Fe     4  0.3333330000000 -0.3333330000000 -0.2018530000000 1.0  -3.09
END
