TITL LFSO-Li4FeSO2-200910-085053-72edd9 -0.0294 329.061648 -8.52679787E+003 2.05589 6.66728 24 (C222) n - 1
REM
REM Run started: Fri, 11 Sep 2020 02:25:55 +0100 in /lustre/scratch/uccabz1/launch_tmp/launcher_2020-09-10-07-50-50-397844
REM CASTEP 20.1 from code version af48c487+ pr-geom-scf-spinfix Tue Jun 2 15:39:59 2020 +0100
REM Functional Perdew Burke Ernzerhof Relativity Koelling-Harmon Dispersion off
REM Cut-off 340.0000 eV Grid scale 1.7500 Gmax 16.5316 1/A FBSC none
REM MP grid 5 2 2 Offset 0.000 0.000 0.000 No. kpts 6 Spacing 0.07
REM Total runtime: 63547.9 s
REM Overall efficiency: 98.3 %
REM
REM
REM
REM compiler GCC version 4.9.2
REM options -cpp -iprefix /lustre/shared/ucl/apps/gcc/4.9.2/bin/../lib/gcc/x86_64-unknown-linux-gnu/4.9.2/ -mtune=corei7 -march=x86-64 -g -Og
REM COMMAND_LINE
REM seed -1699462346 1311996816 1117828442 41167861 1407724220 42763945 1818492574 -1477038423 568703293 898512002 1946150618 -1013416011
REM
REM S 3|1.8|5|6|7|30:31:32(qc=5)
REM O 2|1.5|12|13|15|20:21(qc=5)
REM Li 1|1.3|8|9|10|10U:20(qc=5)
REM Fe 3|2.2|2.0|1.0|8|9|10|40:41:32(qc=5)
REM 
CELL 1.54180    3.03070   13.62007   10.48455  130.50629   90.00000   90.00000
LATT -1
SFAC Li O  S  Fe 
Li     1 -0.1419300000000  0.0642290000000 -0.2213860000000 1.0   0.01
Li     1 -0.1419300000000 -0.0642290000000  0.2213860000000 1.0   0.01
Li     1  0.1419300000000 -0.2856160000000 -0.2213860000000 1.0   0.01
Li     1  0.1419300000000  0.2856160000000  0.2213860000000 1.0   0.01
Li     1 -0.0282650000000 -0.3492900000000 -0.5393720000000 1.0  -0.02
Li     1 -0.0282650000000  0.3492900000000  0.5393720000000 1.0  -0.02
Li     1  0.0282650000000 -0.1900820000000 -0.5393720000000 1.0  -0.02
Li     1  0.0282650000000  0.1900820000000  0.5393720000000 1.0  -0.02
Li     1 -0.4068850000000 -0.3040820000000  0.2166330000000 1.0  -0.01
Li     1 -0.4068850000000  0.3040820000000 -0.2166330000000 1.0  -0.01
Li     1  0.4068850000000  0.5207150000000  0.2166330000000 1.0  -0.01
Li     1  0.4068850000000 -0.5207150000000 -0.2166330000000 1.0  -0.01
O      2  0.0372310000000 -0.5366260000000  0.3545150000000 1.0   0.03
O      2  0.0372310000000  0.5366260000000 -0.3545150000000 1.0   0.03
O      2 -0.0372310000000 -0.1088590000000  0.3545150000000 1.0   0.03
O      2 -0.0372310000000  0.1088590000000 -0.3545150000000 1.0   0.03
O      2  0.5000000000000  0.3028190000000  0.6056370000000 1.0   0.01
O      2 -0.5000000000000 -0.3028190000000 -0.6056370000000 1.0   0.01
S      3  0.0000000000000 -0.1027150000000 -0.2054300000000 1.0  -0.00
S      3  0.0000000000000  0.1027150000000  0.2054300000000 1.0  -0.00
S      3  0.0000000000000 -0.5000000000000 -0.0000000000000 1.0  -0.00
Fe     4  0.5328020000000  0.5000000000000  0.5000000000000 1.0   1.99
Fe     4 -0.5328020000000 -0.0000000000000 -0.5000000000000 1.0   1.99
Fe     4  0.5000000000000 -0.0000000000000 -0.0000000000000 1.0  -1.99
END
