TITL LFSO-Li4Fe3S3O2-200927-122739-7e41ed 0.0202 176.788186 -5.17130166E+003 8.84935 9.05325 12 (F222) n - 1
REM
REM Run started: Sun, 27 Sep 2020 15:17:43 +0100 in /lustre/scratch/uccabz1/launch_tmp/launcher_2020-09-27-11-27-37-626584
REM CASTEP 20.1 from code version af48c487+ pr-geom-scf-spinfix Tue Jun 2 15:39:59 2020 +0100
REM Functional Perdew Burke Ernzerhof Relativity Koelling-Harmon Dispersion off
REM Cut-off 340.0000 eV Grid scale 1.7500 Gmax 16.5316 1/A FBSC none
REM MP grid 3 3 3 Offset 0.000 0.000 0.000 No. kpts 8 Spacing 0.07
REM Total runtime: 10252.7 s
REM Overall efficiency: 95.375 %
REM
REM
REM
REM compiler GCC version 4.9.2
REM options -cpp -iprefix /lustre/shared/ucl/apps/gcc/4.9.2/bin/../lib/gcc/x86_64-unknown-linux-gnu/4.9.2/ -mtune=corei7 -march=x86-64 -g -Og
REM COMMAND_LINE
REM seed -1259221445 -1236186869 573868971 1614955946 -650572529 1814866864 152931402 -1916373991 648458750 -1562601861 1403376269 -1603387768
REM
REM S 3|1.8|5|6|7|30:31:32(qc=5)
REM O 2|1.5|12|13|15|20:21(qc=5)
REM Li 1|1.3|8|9|10|10U:20(qc=5)
REM Fe 3|2.2|2.0|1.0|8|9|10|40:41:32(qc=5)
REM 
CELL 1.54180    5.37586    5.37586    7.10942  108.53931  108.53931   99.15045
LATT -1
SFAC Li O  S  Fe 
Li     1  0.1122610000000  0.3665900000000  0.3982410000000 1.0  -0.05
Li     1  0.2859800000000  0.0316510000000  0.3982410000000 1.0  -0.05
Li     1 -0.3665900000000 -0.1122610000000 -0.3982410000000 1.0  -0.05
Li     1 -0.0316510000000 -0.2859800000000 -0.3982410000000 1.0  -0.05
O      2  0.4971110000000 -0.4971110000000 -0.5000000000000 1.0   0.11
O      2  0.0028890000000 -0.0028890000000 -0.5000000000000 1.0   0.11
S      3  0.2333090000000 -0.2333090000000 -0.0000000000000 1.0   0.14
S      3 -0.2333090000000  0.2333090000000 -0.0000000000000 1.0   0.14
S      3 -0.2500000000000  0.2500000000000  0.5000000000000 1.0   0.08
Fe     4  0.1693650000000  0.1693650000000 -0.0000000000000 1.0   2.92
Fe     4 -0.1693650000000 -0.1693650000000 -0.0000000000000 1.0   2.92
Fe     4 -0.5000000000000 -0.5000000000000 -0.0000000000000 1.0   2.61
END
