TITL LFSO-Li4Fe2SO4-200910-162109-3b373e 0.0396 528.896691 -9.16531071E+003 19.1997 19.3070 22 (Aea2) n - 1
REM
REM Run started: Fri, 11 Sep 2020 09:10:39 +0100 in /lustre/scratch/uccabz1/launch_tmp/launcher_2020-09-10-15-21-07-591963
REM CASTEP 20.1 from code version af48c487+ pr-geom-scf-spinfix Tue Jun 2 15:39:59 2020 +0100
REM Functional Perdew Burke Ernzerhof Relativity Koelling-Harmon Dispersion off
REM Cut-off 340.0000 eV Grid scale 1.7500 Gmax 16.5316 1/A FBSC none
REM MP grid 5 2 2 Offset 0.000 0.000 0.000 No. kpts 6 Spacing 0.07
REM Total runtime: 70363 s
REM Overall efficiency: 98 %
REM
REM
REM
REM compiler GCC version 4.9.2
REM options -cpp -iprefix /lustre/shared/ucl/apps/gcc/4.9.2/bin/../lib/gcc/x86_64-unknown-linux-gnu/4.9.2/ -mtune=corei7 -march=x86-64 -g -Og
REM COMMAND_LINE
REM seed -1834507909 -1838271695 1854242897 1352445361 -1453239905 -971877013 1404898766 16696346 1076989039 674782962 -469492134 2114874041
REM
REM S 3|1.8|5|6|7|30:31:32(qc=5)
REM O 2|1.5|12|13|15|20:21(qc=5)
REM Li 1|1.3|8|9|10|10U:20(qc=5)
REM Fe 3|2.2|2.0|1.0|8|9|10|40:41:32(qc=5)
REM 
CELL 1.54180    3.03248   17.49562   17.49562   34.73552   90.00000   90.00000
LATT -1
SFAC Li O  S  Fe 
Li     1 -0.2203220000000 -0.2876370000000  0.1825620000000 1.0  -0.02
Li     1  0.2203220000000 -0.1825620000000  0.2876370000000 1.0  -0.02
Li     1  0.2796780000000  0.3174380000000 -0.2123630000000 1.0  -0.02
Li     1 -0.2796780000000  0.2123630000000 -0.3174380000000 1.0  -0.02
Li     1  0.2173240000000  0.1061230000000 -0.3240450000000 1.0   0.02
Li     1 -0.2173240000000  0.3240450000000 -0.1061230000000 1.0   0.02
Li     1  0.7173240000000 -0.1759550000000  0.3938770000000 1.0   0.02
Li     1 -0.7173240000000 -0.3938770000000  0.1759550000000 1.0   0.02
O      2  0.2916610000000  0.2028630000000 -0.0184910000000 1.0   0.37
O      2 -0.2916610000000  0.0184910000000 -0.2028630000000 1.0   0.37
O      2 -0.2083390000000  0.5184910000000  0.2971370000000 1.0   0.37
O      2  0.2083390000000 -0.2971370000000 -0.5184910000000 1.0   0.37
O      2 -0.7247960000000 -0.2251650000000  0.0793890000000 1.0   0.41
O      2  0.7247960000000 -0.0793890000000  0.2251650000000 1.0   0.41
O      2 -0.2247960000000 -0.5793890000000 -0.2748350000000 1.0   0.41
O      2  0.2247960000000  0.2748350000000  0.5793890000000 1.0   0.41
S      3 -0.0000000000000  0.0879400000000 -0.0879400000000 1.0   0.34
S      3 -0.5000000000000 -0.4120600000000  0.4120600000000 1.0   0.34
Fe     4 -0.2904300000000 -0.4172610000000 -0.4506080000000 1.0   3.85
Fe     4  0.2904300000000  0.4506080000000  0.4172610000000 1.0   3.85
Fe     4  0.2095700000000 -0.0493920000000 -0.0827390000000 1.0   3.85
Fe     4 -0.2095700000000  0.0827390000000  0.0493920000000 1.0   3.85
END
