data_image0
_chemical_formula_structural       Li2O2S2Fe2
_chemical_formula_sum              "Li2 O2 S2 Fe2"
_cell_length_a       5.14202
_cell_length_b       5.15602
_cell_length_c       5.92977
_cell_angle_alpha    64.3598
_cell_angle_beta     64.3717
_cell_angle_gamma    89.8907

_space_group_name_H-M_alt    "P 1"
_space_group_IT_number       1

loop_
  _space_group_symop_operation_xyz
  'x, y, z'

loop_
  _atom_site_type_symbol
  _atom_site_label
  _atom_site_symmetry_multiplicity
  _atom_site_fract_x
  _atom_site_fract_y
  _atom_site_fract_z
  _atom_site_occupancy
  Li  Li1       1.0  0.78664  0.62997  0.42778  1.0000
  Li  Li2       1.0  0.13039  0.28831  0.92524  1.0000
  O   O1        1.0  0.51111  0.22890  0.66928  1.0000
  O   O2        1.0  0.72956  0.01070  0.16871  1.0000
  S   S1        1.0  0.26711  0.51218  0.16892  1.0000
  S   S2        1.0  0.01274  0.76832  0.66818  1.0000
  Fe  Fe1       1.0  0.44161  0.13744  0.41542  1.0000
  Fe  Fe2       1.0  0.63710  0.94044  0.91595  1.0000
