data_image0
_chemical_formula_structural       Li5O3SFe
_chemical_formula_sum              "Li5 O3 S1 Fe1"
_cell_length_a       5.15525
_cell_length_b       5.15525
_cell_length_c       5.47157
_cell_angle_alpha    71.3109
_cell_angle_beta     71.3109
_cell_angle_gamma    87.7636

_space_group_name_H-M_alt    "P 1"
_space_group_IT_number       1

loop_
  _space_group_symop_operation_xyz
  'x, y, z'

loop_
  _atom_site_type_symbol
  _atom_site_label
  _atom_site_symmetry_multiplicity
  _atom_site_fract_x
  _atom_site_fract_y
  _atom_site_fract_z
  _atom_site_occupancy
  Li  Li1       1.0  0.99715  0.37763  0.28084  1.0000
  Li  Li2       1.0  0.37763  0.99715  0.28084  1.0000
  Li  Li3       1.0  0.82947  0.31712  0.80065  1.0000
  Li  Li4       1.0  0.31712  0.82947  0.80065  1.0000
  Li  Li5       1.0  0.84440  0.84440  0.78182  1.0000
  O   O1        1.0  0.51242  0.06781  0.90439  1.0000
  O   O2        1.0  0.06781  0.51242  0.90439  1.0000
  O   O3        1.0  0.14934  0.14934  0.55901  1.0000
  S   S1        1.0  0.69482  0.69482  0.45005  1.0000
  Fe  Fe1       1.0  0.34738  0.34738  0.69536  1.0000
