data_image0
_chemical_formula_structural       Li5O3SFe
_chemical_formula_sum              "Li5 O3 S1 Fe1"
_cell_length_a       5.15552
_cell_length_b       5.15552
_cell_length_c       5.50288
_cell_angle_alpha    70.4038
_cell_angle_beta     70.4038
_cell_angle_gamma    87.8414

_space_group_name_H-M_alt    "P 1"
_space_group_IT_number       1

loop_
  _space_group_symop_operation_xyz
  'x, y, z'

loop_
  _atom_site_type_symbol
  _atom_site_label
  _atom_site_symmetry_multiplicity
  _atom_site_fract_x
  _atom_site_fract_y
  _atom_site_fract_z
  _atom_site_occupancy
  Li  Li1       1.0  0.88028  0.26007  0.02687  1.0000
  Li  Li2       1.0  0.26007  0.88028  0.02687  1.0000
  Li  Li3       1.0  0.93843  0.42533  0.50755  1.0000
  Li  Li4       1.0  0.42533  0.93843  0.50755  1.0000
  Li  Li5       1.0  0.41132  0.41132  0.52472  1.0000
  O   O1        1.0  0.74485  0.18891  0.40448  1.0000
  O   O2        1.0  0.18891  0.74485  0.40448  1.0000
  O   O3        1.0  0.10243  0.10243  0.75032  1.0000
  S   S1        1.0  0.55250  0.55250  0.86240  1.0000
  Fe  Fe1       1.0  0.90566  0.90566  0.61557  1.0000
