data_image0
_chemical_formula_structural       Li5O3SFe
_chemical_formula_sum              "Li5 O3 S1 Fe1"
_cell_length_a       5.15547
_cell_length_b       5.15547
_cell_length_c       5.50262
_cell_angle_alpha    69.7556
_cell_angle_beta     69.7556
_cell_angle_gamma    88.1509

_space_group_name_H-M_alt    "P 1"
_space_group_IT_number       1

loop_
  _space_group_symop_operation_xyz
  'x, y, z'

loop_
  _atom_site_type_symbol
  _atom_site_label
  _atom_site_symmetry_multiplicity
  _atom_site_fract_x
  _atom_site_fract_y
  _atom_site_fract_z
  _atom_site_occupancy
  Li  Li1       1.0  0.55038  0.17207  0.85466  1.0000
  Li  Li2       1.0  0.17207  0.55038  0.85466  1.0000
  Li  Li3       1.0  0.70772  0.22381  0.33846  1.0000
  Li  Li4       1.0  0.22381  0.70772  0.33846  1.0000
  Li  Li5       1.0  0.69974  0.69974  0.34534  1.0000
  O   O1        1.0  0.03051  0.47340  0.23584  1.0000
  O   O2        1.0  0.47340  0.03051  0.23584  1.0000
  O   O3        1.0  0.38555  0.38555  0.58034  1.0000
  S   S1        1.0  0.82945  0.82945  0.69848  1.0000
  Fe  Fe1       1.0  0.18796  0.18796  0.44800  1.0000
