data_image0
_chemical_formula_structural       Li10O6S2Fe2
_chemical_formula_sum              "Li10 O6 S2 Fe2"
_cell_length_a       5.10464
_cell_length_b       5.77516
_cell_length_c       9.68752
_cell_angle_alpha    75.8256
_cell_angle_beta     74.7242
_cell_angle_gamma    63.7717

_space_group_name_H-M_alt    "P 1"
_space_group_IT_number       1

loop_
  _space_group_symop_operation_xyz
  'x, y, z'

loop_
  _atom_site_type_symbol
  _atom_site_label
  _atom_site_symmetry_multiplicity
  _atom_site_fract_x
  _atom_site_fract_y
  _atom_site_fract_z
  _atom_site_occupancy
  Li  Li1       1.0  0.07420  0.36297  0.50167  1.0000
  Li  Li2       1.0  0.56116  0.86297  0.00167  1.0000
  Li  Li3       1.0  0.61407  0.71667  0.69001  1.0000
  Li  Li4       1.0  0.47925  0.21667  0.19001  1.0000
  Li  Li5       1.0  0.25265  0.86024  0.50363  1.0000
  Li  Li6       1.0  0.88348  0.36024  0.00363  1.0000
  Li  Li7       1.0  0.41829  0.28373  0.79604  1.0000
  Li  Li8       1.0  0.00194  0.78373  0.29604  1.0000
  Li  Li9       1.0  0.57928  0.61814  0.24167  1.0000
  Li  Li10      1.0  0.06092  0.11814  0.74167  1.0000
  O   O1        1.0  0.72057  0.37163  0.64682  1.0000
  O   O2        1.0  0.76098  0.87163  0.14682  1.0000
  O   O3        1.0  0.20820  0.07979  0.92132  1.0000
  O   O4        1.0  0.29068  0.57979  0.42132  1.0000
  O   O5        1.0  0.40551  0.05047  0.58151  1.0000
  O   O6        1.0  0.46250  0.55047  0.08151  1.0000
  S   S1        1.0  0.98625  0.20607  0.30966  1.0000
  S   S2        1.0  0.99801  0.70607  0.80966  1.0000
  Fe  Fe1       1.0  0.59314  0.28549  0.50573  1.0000
  Fe  Fe2       1.0  0.11563  0.78549  0.00573  1.0000
