data_image0
_chemical_formula_structural       Li8Fe4S4O4
_chemical_formula_sum              "Li8 Fe4 S4 O4"
_cell_length_a       5.61078
_cell_length_b       5.63637
_cell_length_c       7.71975
_cell_angle_alpha    90
_cell_angle_beta     90
_cell_angle_gamma    90

_space_group_name_H-M_alt    "P 1"
_space_group_IT_number       1

loop_
  _space_group_symop_operation_xyz
  'x, y, z'

loop_
  _atom_site_type_symbol
  _atom_site_label
  _atom_site_symmetry_multiplicity
  _atom_site_fract_x
  _atom_site_fract_y
  _atom_site_fract_z
  _atom_site_occupancy
  Li  Li1       1.0  0.50000  0.93986  0.25000  1.0000
  Li  Li2       1.0  0.00000  0.56014  0.25000  1.0000
  Li  Li3       1.0  0.50000  0.06014  0.75000  1.0000
  Li  Li4       1.0  0.00000  0.43986  0.75000  1.0000
  Li  Li5       1.0  0.75000  0.75000  0.53544  1.0000
  Li  Li6       1.0  0.25000  0.25000  0.46456  1.0000
  Li  Li7       1.0  0.75000  0.25000  0.03544  1.0000
  Li  Li8       1.0  0.25000  0.75000  0.96456  1.0000
  Fe  Fe1       1.0  0.75000  0.75000  0.97482  1.0000
  Fe  Fe2       1.0  0.25000  0.25000  0.02518  1.0000
  Fe  Fe3       1.0  0.75000  0.25000  0.47482  1.0000
  Fe  Fe4       1.0  0.25000  0.75000  0.52518  1.0000
  S   S1        1.0  0.00000  0.00156  0.25000  1.0000
  S   S2        1.0  0.50000  0.49844  0.25000  1.0000
  S   S3        1.0  0.00000  0.99844  0.75000  1.0000
  S   S4        1.0  0.50000  0.50156  0.75000  1.0000
  O   O1        1.0  0.50000  0.00000  0.00000  1.0000
  O   O2        1.0  0.00000  0.50000  0.00000  1.0000
  O   O3        1.0  0.50000  0.00000  0.50000  1.0000
  O   O4        1.0  0.00000  0.50000  0.50000  1.0000
