data_image0
_chemical_formula_structural       Li4O2S2Fe2
_chemical_formula_sum              "Li4 O2 S2 Fe2"
_cell_length_a       5.46841
_cell_length_b       5.4688
_cell_length_c       5.59417
_cell_angle_alpha    119.261
_cell_angle_beta     119.221
_cell_angle_gamma    90

_space_group_name_H-M_alt    "P 1"
_space_group_IT_number       1

loop_
  _space_group_symop_operation_xyz
  'x, y, z'

loop_
  _atom_site_type_symbol
  _atom_site_label
  _atom_site_symmetry_multiplicity
  _atom_site_fract_x
  _atom_site_fract_y
  _atom_site_fract_z
  _atom_site_occupancy
  Li  Li1       1.0  0.88413  0.67156  0.73260  1.0000
  Li  Li2       1.0  0.38413  0.56104  0.73260  1.0000
  Li  Li3       1.0  0.27775  0.06502  0.73845  1.0000
  Li  Li4       1.0  0.77775  0.17343  0.73845  1.0000
  O   O1        1.0  0.08061  0.36759  0.73514  1.0000
  O   O2        1.0  0.58061  0.86755  0.73514  1.0000
  S   S1        1.0  0.83119  0.61850  0.23543  1.0000
  S   S2        1.0  0.33119  0.11693  0.23543  1.0000
  Fe  Fe1       1.0  0.82932  0.11493  0.23572  1.0000
  Fe  Fe2       1.0  0.32932  0.62080  0.23572  1.0000
