data_image0
_chemical_formula_structural       Li6O3S3Fe3
_chemical_formula_sum              "Li6 O3 S3 Fe3"
_cell_length_a       5.58775
_cell_length_b       5.58775
_cell_length_c       6.82878
_cell_angle_alpha    90
_cell_angle_beta     90
_cell_angle_gamma    120

_space_group_name_H-M_alt    "P 1"
_space_group_IT_number       1

loop_
  _space_group_symop_operation_xyz
  'x, y, z'

loop_
  _atom_site_type_symbol
  _atom_site_label
  _atom_site_symmetry_multiplicity
  _atom_site_fract_x
  _atom_site_fract_y
  _atom_site_fract_z
  _atom_site_occupancy
  Li  Li1       1.0  0.17165  0.62771  0.44274  1.0000
  Li  Li2       1.0  0.45606  0.82835  0.77607  1.0000
  Li  Li3       1.0  0.37229  0.54394  0.10941  1.0000
  Li  Li4       1.0  0.95982  0.83654  0.69852  1.0000
  Li  Li5       1.0  0.87672  0.04018  0.03185  1.0000
  Li  Li6       1.0  0.16346  0.12328  0.36519  1.0000
  O   O1        1.0  0.66613  0.66865  0.90403  1.0000
  O   O2        1.0  0.00252  0.33387  0.23737  1.0000
  O   O3        1.0  0.33135  0.99748  0.57070  1.0000
  S   S1        1.0  0.33940  0.00601  0.07073  1.0000
  S   S2        1.0  0.66662  0.66060  0.40406  1.0000
  S   S3        1.0  0.99399  0.33338  0.73739  1.0000
  Fe  Fe1       1.0  0.86914  0.53644  0.07131  1.0000
  Fe  Fe2       1.0  0.66729  0.13086  0.40464  1.0000
  Fe  Fe3       1.0  0.46356  0.33271  0.73797  1.0000
