data_image0
_chemical_formula_structural       Li4OS4Fe2
_chemical_formula_sum              "Li4 O1 S4 Fe2"
_cell_length_a       5.98499
_cell_length_b       6.72925
_cell_length_c       6.72925
_cell_angle_alpha    120
_cell_angle_beta     90
_cell_angle_gamma    90

_space_group_name_H-M_alt    "P 1"
_space_group_IT_number       1

loop_
  _space_group_symop_operation_xyz
  'x, y, z'

loop_
  _atom_site_type_symbol
  _atom_site_label
  _atom_site_symmetry_multiplicity
  _atom_site_fract_x
  _atom_site_fract_y
  _atom_site_fract_z
  _atom_site_occupancy
  Li  Li1       1.0  0.98780  0.44814  0.49629  1.0000
  Li  Li2       1.0  0.98780  0.50371  0.95185  1.0000
  Li  Li3       1.0  0.98780  0.04815  0.55186  1.0000
  Li  Li4       1.0  0.41279  0.00000  0.00000  1.0000
  O   O1        1.0  0.84735  0.33333  0.66667  1.0000
  S   S1        1.0  0.37176  0.64356  0.98939  1.0000
  S   S2        1.0  0.37176  0.01061  0.65417  1.0000
  S   S3        1.0  0.37176  0.34583  0.35644  1.0000
  S   S4        1.0  0.86419  0.66667  0.33333  1.0000
  Fe  Fe1       1.0  0.49356  0.66667  0.33333  1.0000
  Fe  Fe2       1.0  0.54080  0.33333  0.66667  1.0000
