data_image0
_chemical_formula_structural       Li8O2S8Fe4
_chemical_formula_sum              "Li8 O2 S8 Fe4"
_cell_length_a       7.13862
_cell_length_b       8.44594
_cell_length_c       9.14034
_cell_angle_alpha    111.416
_cell_angle_beta     106.017
_cell_angle_gamma    97.0506

_space_group_name_H-M_alt    "P 1"
_space_group_IT_number       1

loop_
  _space_group_symop_operation_xyz
  'x, y, z'

loop_
  _atom_site_type_symbol
  _atom_site_label
  _atom_site_symmetry_multiplicity
  _atom_site_fract_x
  _atom_site_fract_y
  _atom_site_fract_z
  _atom_site_occupancy
  Li  Li1       1.0  0.20437  0.61275  0.56172  1.0000
  Li  Li2       1.0  0.79563  0.38725  0.43828  1.0000
  Li  Li3       1.0  0.55517  0.23686  0.05918  1.0000
  Li  Li4       1.0  0.44483  0.76314  0.94082  1.0000
  Li  Li5       1.0  0.96117  0.00330  0.17443  1.0000
  Li  Li6       1.0  0.03883  0.99670  0.82557  1.0000
  Li  Li7       1.0  0.35170  0.28750  0.27704  1.0000
  Li  Li8       1.0  0.64830  0.71250  0.72296  1.0000
  O   O1        1.0  0.41773  0.59336  0.73321  1.0000
  O   O2        1.0  0.58227  0.40664  0.26679  1.0000
  S   S1        1.0  0.91165  0.70513  0.60672  1.0000
  S   S2        1.0  0.08835  0.29487  0.39328  1.0000
  S   S3        1.0  0.70213  0.80656  0.20882  1.0000
  S   S4        1.0  0.29787  0.19344  0.79118  1.0000
  S   S5        1.0  0.39353  0.77828  0.44624  1.0000
  S   S6        1.0  0.60647  0.22172  0.55376  1.0000
  S   S7        1.0  0.26543  0.97046  0.08724  1.0000
  S   S8        1.0  0.73457  0.02954  0.91276  1.0000
  Fe  Fe1       1.0  0.52223  0.05028  0.69353  1.0000
  Fe  Fe2       1.0  0.47777  0.94972  0.30647  1.0000
  Fe  Fe3       1.0  0.66109  0.64659  0.36532  1.0000
  Fe  Fe4       1.0  0.33891  0.35341  0.63468  1.0000
