data_image0
_chemical_formula_structural       Li16Fe8S8O8
_chemical_formula_sum              "Li16 Fe8 S8 O8"
_cell_length_a       7.71975
_cell_length_b       7.95296
_cell_length_c       7.95296
_cell_angle_alpha    90.2607
_cell_angle_beta     90
_cell_angle_gamma    90

_space_group_name_H-M_alt    "P 1"
_space_group_IT_number       1

loop_
  _space_group_symop_operation_xyz
  'x, y, z'

loop_
  _atom_site_type_symbol
  _atom_site_label
  _atom_site_symmetry_multiplicity
  _atom_site_fract_x
  _atom_site_fract_y
  _atom_site_fract_z
  _atom_site_occupancy
  Li  Li1       1.0  0.00000  0.77929  0.22071  1.0000
  Li  Li2       1.0  0.00000  0.27929  0.72071  1.0000
  Li  Li3       1.0  0.00000  0.71915  0.78085  1.0000
  Li  Li4       1.0  0.00000  0.21915  0.28085  1.0000
  Li  Li5       1.0  0.50000  0.21915  0.78085  1.0000
  Li  Li6       1.0  0.50000  0.71915  0.28085  1.0000
  Li  Li7       1.0  0.50000  0.77929  0.72071  1.0000
  Li  Li8       1.0  0.50000  0.27929  0.22071  1.0000
  Li  Li9       1.0  0.28544  0.99922  0.25078  1.0000
  Li  Li10      1.0  0.28544  0.49922  0.75078  1.0000
  Li  Li11      1.0  0.21456  0.99922  0.75078  1.0000
  Li  Li12      1.0  0.21456  0.49922  0.25078  1.0000
  Li  Li13      1.0  0.78544  0.24922  0.00078  1.0000
  Li  Li14      1.0  0.78544  0.74922  0.50078  1.0000
  Li  Li15      1.0  0.71456  0.74922  0.00078  1.0000
  Li  Li16      1.0  0.71456  0.24922  0.50078  1.0000
  Fe  Fe1       1.0  0.72482  0.99922  0.25078  1.0000
  Fe  Fe2       1.0  0.72482  0.49922  0.75078  1.0000
  Fe  Fe3       1.0  0.77518  0.99922  0.75078  1.0000
  Fe  Fe4       1.0  0.77518  0.49922  0.25078  1.0000
  Fe  Fe5       1.0  0.22482  0.24922  0.00078  1.0000
  Fe  Fe6       1.0  0.22482  0.74922  0.50078  1.0000
  Fe  Fe7       1.0  0.27518  0.74922  0.00078  1.0000
  Fe  Fe8       1.0  0.27518  0.24922  0.50078  1.0000
  S   S1        1.0  0.00000  0.49844  0.00156  1.0000
  S   S2        1.0  0.00000  0.99844  0.50156  1.0000
  S   S3        1.0  0.00000  0.00000  0.00000  1.0000
  S   S4        1.0  0.00000  0.50000  0.50000  1.0000
  S   S5        1.0  0.50000  0.00000  0.50000  1.0000
  S   S6        1.0  0.50000  0.50000  1.00000  1.0000
  S   S7        1.0  0.50000  0.99844  0.00156  1.0000
  S   S8        1.0  0.50000  0.49844  0.50156  1.0000
  O   O1        1.0  0.75000  0.24922  0.75078  1.0000
  O   O2        1.0  0.75000  0.74922  0.25078  1.0000
  O   O3        1.0  0.75000  0.74922  0.75078  1.0000
  O   O4        1.0  0.75000  0.24922  0.25078  1.0000
  O   O5        1.0  0.25000  0.24922  0.75078  1.0000
  O   O6        1.0  0.25000  0.74922  0.25078  1.0000
  O   O7        1.0  0.25000  0.74922  0.75078  1.0000
  O   O8        1.0  0.25000  0.24922  0.25078  1.0000
