data_image0
_chemical_formula_structural       Li8O4S2Fe2
_chemical_formula_sum              "Li8 O4 S2 Fe2"
_cell_length_a       3.76746
_cell_length_b       7.48991
_cell_length_c       8.27615
_cell_angle_alpha    90
_cell_angle_beta     90
_cell_angle_gamma    90.4928

_space_group_name_H-M_alt    "P 1"
_space_group_IT_number       1

loop_
  _space_group_symop_operation_xyz
  'x, y, z'

loop_
  _atom_site_type_symbol
  _atom_site_label
  _atom_site_symmetry_multiplicity
  _atom_site_fract_x
  _atom_site_fract_y
  _atom_site_fract_z
  _atom_site_occupancy
  Li  Li1       1.0  0.75771  0.35808  0.41652  1.0000
  Li  Li2       1.0  0.24229  0.64192  0.91652  1.0000
  Li  Li3       1.0  0.24229  0.64192  0.58348  1.0000
  Li  Li4       1.0  0.75771  0.35808  0.08348  1.0000
  Li  Li5       1.0  0.74741  0.89874  0.99228  1.0000
  Li  Li6       1.0  0.25259  0.10126  0.49228  1.0000
  Li  Li7       1.0  0.25259  0.10126  0.00772  1.0000
  Li  Li8       1.0  0.74741  0.89874  0.50772  1.0000
  O   O1        1.0  0.75418  0.15344  0.54166  1.0000
  O   O2        1.0  0.24582  0.84656  0.04166  1.0000
  O   O3        1.0  0.24582  0.84656  0.45834  1.0000
  O   O4        1.0  0.75418  0.15344  0.95834  1.0000
  S   S1        1.0  0.74130  0.57092  0.75000  1.0000
  S   S2        1.0  0.25870  0.42908  0.25000  1.0000
  Fe  Fe1       1.0  0.75233  0.25507  0.75000  1.0000
  Fe  Fe2       1.0  0.24767  0.74493  0.25000  1.0000
