data_image0
_chemical_formula_structural       Li4O2SFe
_chemical_formula_sum              "Li4 O2 S1 Fe1"
_cell_length_a       3.85142
_cell_length_b       3.92548
_cell_length_c       6.51683
_cell_angle_alpha    89.9383
_cell_angle_beta     72.8154
_cell_angle_gamma    89.9998

_space_group_name_H-M_alt    "P 1"
_space_group_IT_number       1

loop_
  _space_group_symop_operation_xyz
  'x, y, z'

loop_
  _atom_site_type_symbol
  _atom_site_label
  _atom_site_symmetry_multiplicity
  _atom_site_fract_x
  _atom_site_fract_y
  _atom_site_fract_z
  _atom_site_occupancy
  Li  Li1       1.0  0.68185  0.50011  0.63632  1.0000
  Li  Li2       1.0  0.31815  0.49989  0.36368  1.0000
  Li  Li3       1.0  0.13433  0.00038  0.73138  1.0000
  Li  Li4       1.0  0.86567  0.99962  0.26862  1.0000
  O   O1        1.0  0.84064  0.49943  0.31868  1.0000
  O   O2        1.0  0.15936  0.50057  0.68132  1.0000
  S   S1        1.0  0.50000  0.00000  0.00000  1.0000
  Fe  Fe1       1.0  0.00000  0.50000  0.00000  1.0000
