data_image0
_chemical_formula_structural       Li2OS3Fe3
_chemical_formula_sum              "Li2 O1 S3 Fe3"
_cell_length_a       5.36656
_cell_length_b       5.36656
_cell_length_c       5.36656
_cell_angle_alpha    90.3771
_cell_angle_beta     90.3771
_cell_angle_gamma    90.3771

_space_group_name_H-M_alt    "P 1"
_space_group_IT_number       1

loop_
  _space_group_symop_operation_xyz
  'x, y, z'

loop_
  _atom_site_type_symbol
  _atom_site_label
  _atom_site_symmetry_multiplicity
  _atom_site_fract_x
  _atom_site_fract_y
  _atom_site_fract_z
  _atom_site_occupancy
  Li  Li1       1.0  0.06561  0.06561  0.06561  1.0000
  Li  Li2       1.0  0.33798  0.33798  0.33798  1.0000
  O   O1        1.0  0.54252  0.54252  0.54252  1.0000
  S   S1        1.0  0.53971  0.04044  0.04060  1.0000
  S   S2        1.0  0.04044  0.04060  0.53971  1.0000
  S   S3        1.0  0.04060  0.53971  0.04044  1.0000
  Fe  Fe1       1.0  0.33375  0.75723  0.75677  1.0000
  Fe  Fe2       1.0  0.75723  0.75677  0.33375  1.0000
  Fe  Fe3       1.0  0.75677  0.33375  0.75723  1.0000
