data_image0
_chemical_formula_structural       Li2OS3Fe3
_chemical_formula_sum              "Li2 O1 S3 Fe3"
_cell_length_a       3.83003
_cell_length_b       6.71231
_cell_length_c       6.71232
_cell_angle_alpha    115.793
_cell_angle_beta     94.1388
_cell_angle_gamma    94.1389

_space_group_name_H-M_alt    "P 1"
_space_group_IT_number       1

loop_
  _space_group_symop_operation_xyz
  'x, y, z'

loop_
  _atom_site_type_symbol
  _atom_site_label
  _atom_site_symmetry_multiplicity
  _atom_site_fract_x
  _atom_site_fract_y
  _atom_site_fract_z
  _atom_site_occupancy
  Li  Li1       1.0  0.84900  0.25747  0.04201  1.0000
  Li  Li2       1.0  0.15100  0.95799  0.74253  1.0000
  O   O1        1.0  0.00000  0.97971  0.02029  1.0000
  S   S1        1.0  0.61938  0.01668  0.52492  1.0000
  S   S2        1.0  0.38062  0.47508  0.98332  1.0000
  S   S3        1.0  0.00000  0.49991  0.50009  1.0000
  Fe  Fe1       1.0  0.88150  0.65703  0.90390  1.0000
  Fe  Fe2       1.0  0.11850  0.09610  0.34297  1.0000
  Fe  Fe3       1.0  0.50000  0.62716  0.37284  1.0000
