data_image0
_chemical_formula_structural       Li4O6S2Fe4
_chemical_formula_sum              "Li4 O6 S2 Fe4"
_cell_length_a       5.82044
_cell_length_b       5.82044
_cell_length_c       6.63904
_cell_angle_alpha    90
_cell_angle_beta     90
_cell_angle_gamma    108.587

_space_group_name_H-M_alt    "P 1"
_space_group_IT_number       1

loop_
  _space_group_symop_operation_xyz
  'x, y, z'

loop_
  _atom_site_type_symbol
  _atom_site_label
  _atom_site_symmetry_multiplicity
  _atom_site_fract_x
  _atom_site_fract_y
  _atom_site_fract_z
  _atom_site_occupancy
  Li  Li1       1.0  0.46581  0.53653  0.20837  1.0000
  Li  Li2       1.0  0.46347  0.53419  0.79163  1.0000
  Li  Li3       1.0  0.96347  0.03419  0.70837  1.0000
  Li  Li4       1.0  0.96581  0.03653  0.29163  1.0000
  O   O1        1.0  0.33284  0.16714  0.24961  1.0000
  O   O2        1.0  0.83286  0.66716  0.75039  1.0000
  O   O3        1.0  0.33286  0.16716  0.74961  1.0000
  O   O4        1.0  0.83284  0.66714  0.25039  1.0000
  O   O5        1.0  0.30945  0.69055  0.00000  1.0000
  O   O6        1.0  0.80945  0.19055  0.50000  1.0000
  S   S1        1.0  0.32976  0.67024  0.50000  1.0000
  S   S2        1.0  0.82976  0.17024  0.00000  1.0000
  Fe  Fe1       1.0  0.96168  0.58827  0.00037  1.0000
  Fe  Fe2       1.0  0.41173  0.03832  0.99963  1.0000
  Fe  Fe3       1.0  0.91173  0.53832  0.50037  1.0000
  Fe  Fe4       1.0  0.46168  0.08827  0.49963  1.0000
