data_image0
_chemical_formula_structural       Li3O5SFe3
_chemical_formula_sum              "Li3 O5 S1 Fe3"
_cell_length_a       3.10007
_cell_length_b       3.96625
_cell_length_c       9.77088
_cell_angle_alpha    90
_cell_angle_beta     90.1622
_cell_angle_gamma    90

_space_group_name_H-M_alt    "P 1"
_space_group_IT_number       1

loop_
  _space_group_symop_operation_xyz
  'x, y, z'

loop_
  _atom_site_type_symbol
  _atom_site_label
  _atom_site_symmetry_multiplicity
  _atom_site_fract_x
  _atom_site_fract_y
  _atom_site_fract_z
  _atom_site_occupancy
  Li  Li1       1.0  0.49743  0.86917  0.77979  1.0000
  Li  Li2       1.0  0.50257  0.86917  0.22021  1.0000
  Li  Li3       1.0  0.50000  0.86737  0.50000  1.0000
  O   O1        1.0  0.99720  0.86858  0.65201  1.0000
  O   O2        1.0  0.00280  0.86858  0.34799  1.0000
  O   O3        1.0  0.49695  0.36956  0.79331  1.0000
  O   O4        1.0  0.50305  0.36956  0.20669  1.0000
  O   O5        1.0  0.50000  0.36774  0.50000  1.0000
  S   S1        1.0  0.00000  0.87099  0.00000  1.0000
  Fe  Fe1       1.0  0.99620  0.36846  0.65736  1.0000
  Fe  Fe2       1.0  0.00380  0.36846  0.34264  1.0000
  Fe  Fe3       1.0  0.50000  0.36985  0.00000  1.0000
