data_image0
_chemical_formula_structural       Li3O5SFe3
_chemical_formula_sum              "Li3 O5 S1 Fe3"
_cell_length_a       5.75158
_cell_length_b       5.75158
_cell_length_c       5.75673
_cell_angle_alpha    99.188
_cell_angle_beta     99.188
_cell_angle_gamma    119.182

_space_group_name_H-M_alt    "P 1"
_space_group_IT_number       1

loop_
  _space_group_symop_operation_xyz
  'x, y, z'

loop_
  _atom_site_type_symbol
  _atom_site_label
  _atom_site_symmetry_multiplicity
  _atom_site_fract_x
  _atom_site_fract_y
  _atom_site_fract_z
  _atom_site_occupancy
  Li  Li1       1.0  0.05022  0.73307  0.19864  1.0000
  Li  Li2       1.0  0.73307  0.05022  0.19864  1.0000
  Li  Li3       1.0  0.83111  0.83111  0.67721  1.0000
  O   O1        1.0  0.93223  0.58612  0.81199  1.0000
  O   O2        1.0  0.58612  0.93223  0.81199  1.0000
  O   O3        1.0  0.46162  0.13049  0.34152  1.0000
  O   O4        1.0  0.13049  0.46162  0.34152  1.0000
  O   O5        1.0  0.75121  0.75121  0.32251  1.0000
  S   S1        1.0  0.25674  0.25674  0.81705  1.0000
  Fe  Fe1       1.0  0.60752  0.22462  0.68269  1.0000
  Fe  Fe2       1.0  0.22462  0.60752  0.68269  1.0000
  Fe  Fe3       1.0  0.42387  0.42387  0.24637  1.0000
