data_image0
_chemical_formula_structural       Li6O10S2Fe6
_chemical_formula_sum              "Li6 O10 S2 Fe6"
_cell_length_a       5.43767
_cell_length_b       5.84872
_cell_length_c       10.0927
_cell_angle_alpha    98.7966
_cell_angle_beta     102.391
_cell_angle_gamma    92.9083

_space_group_name_H-M_alt    "P 1"
_space_group_IT_number       1

loop_
  _space_group_symop_operation_xyz
  'x, y, z'

loop_
  _atom_site_type_symbol
  _atom_site_label
  _atom_site_symmetry_multiplicity
  _atom_site_fract_x
  _atom_site_fract_y
  _atom_site_fract_z
  _atom_site_occupancy
  Li  Li1       1.0  0.23406  0.09306  0.21754  1.0000
  Li  Li2       1.0  0.76594  0.90694  0.78246  1.0000
  Li  Li3       1.0  0.14954  0.17729  0.96011  1.0000
  Li  Li4       1.0  0.85046  0.82271  0.03989  1.0000
  Li  Li5       1.0  0.44745  0.81192  0.52791  1.0000
  Li  Li6       1.0  0.55255  0.18808  0.47209  1.0000
  O   O1        1.0  0.08577  0.41659  0.82290  1.0000
  O   O2        1.0  0.91423  0.58341  0.17710  1.0000
  O   O3        1.0  0.43323  0.88394  0.34646  1.0000
  O   O4        1.0  0.56677  0.11606  0.65354  1.0000
  O   O5        1.0  0.87486  0.05575  0.21910  1.0000
  O   O6        1.0  0.12514  0.94425  0.78090  1.0000
  O   O7        1.0  0.76577  0.16547  0.94953  1.0000
  O   O8        1.0  0.23423  0.83453  0.05047  1.0000
  O   O9        1.0  0.37678  0.34028  0.13871  1.0000
  O   O10       1.0  0.62322  0.65972  0.86129  1.0000
  S   S1        1.0  0.81379  0.54680  0.47946  1.0000
  S   S2        1.0  0.18621  0.45320  0.52054  1.0000
  Fe  Fe1       1.0  0.77278  0.80670  0.30921  1.0000
  Fe  Fe2       1.0  0.22722  0.19330  0.69079  1.0000
  Fe  Fe3       1.0  0.27367  0.64091  0.18968  1.0000
  Fe  Fe4       1.0  0.72633  0.35909  0.81032  1.0000
  Fe  Fe5       1.0  0.72073  0.28619  0.13113  1.0000
  Fe  Fe6       1.0  0.27927  0.71381  0.86887  1.0000
