data_image0
_chemical_formula_structural       Li3O5SFe3
_chemical_formula_sum              "Li3 O5 S1 Fe3"
_cell_length_a       3.28993
_cell_length_b       7.54835
_cell_length_c       7.54835
_cell_angle_alpha    82.9142
_cell_angle_beta     89.8643
_cell_angle_gamma    89.8643

_space_group_name_H-M_alt    "P 1"
_space_group_IT_number       1

loop_
  _space_group_symop_operation_xyz
  'x, y, z'

loop_
  _atom_site_type_symbol
  _atom_site_label
  _atom_site_symmetry_multiplicity
  _atom_site_fract_x
  _atom_site_fract_y
  _atom_site_fract_z
  _atom_site_occupancy
  Li  Li1       1.0  0.09240  0.24076  0.64792  1.0000
  Li  Li2       1.0  0.09240  0.64792  0.24076  1.0000
  Li  Li3       1.0  0.08559  0.28604  0.28604  1.0000
  O   O1        1.0  0.08549  0.06777  0.44851  1.0000
  O   O2        1.0  0.08549  0.44851  0.06777  1.0000
  O   O3        1.0  0.59213  0.33317  0.74289  1.0000
  O   O4        1.0  0.59213  0.74289  0.33317  1.0000
  O   O5        1.0  0.09352  0.44916  0.44916  1.0000
  S   S1        1.0  0.57596  0.75245  0.75245  1.0000
  Fe  Fe1       1.0  0.58638  0.93182  0.46909  1.0000
  Fe  Fe2       1.0  0.58638  0.46909  0.93182  1.0000
  Fe  Fe3       1.0  0.59220  0.53714  0.53714  1.0000
