data_image0
_chemical_formula_structural       Li6OS3Fe
_chemical_formula_sum              "Li6 O1 S3 Fe1"
_cell_length_a       3.85389
_cell_length_b       4.07783
_cell_length_c       10.2953
_cell_angle_alpha    90
_cell_angle_beta     90
_cell_angle_gamma    90.165

_space_group_name_H-M_alt    "P 1"
_space_group_IT_number       1

loop_
  _space_group_symop_operation_xyz
  'x, y, z'

loop_
  _atom_site_type_symbol
  _atom_site_label
  _atom_site_symmetry_multiplicity
  _atom_site_fract_x
  _atom_site_fract_y
  _atom_site_fract_z
  _atom_site_occupancy
  Li  Li1       1.0  0.28582  0.89050  0.36781  1.0000
  Li  Li2       1.0  0.28582  0.89050  0.63219  1.0000
  Li  Li3       1.0  0.78591  0.11368  0.14545  1.0000
  Li  Li4       1.0  0.78591  0.11368  0.85455  1.0000
  Li  Li5       1.0  0.28609  0.59797  0.86611  1.0000
  Li  Li6       1.0  0.28609  0.59797  0.13389  1.0000
  O   O1        1.0  0.28598  0.19900  0.50000  1.0000
  S   S1        1.0  0.78532  0.61852  0.72272  1.0000
  S   S2        1.0  0.78532  0.61852  0.27728  1.0000
  S   S3        1.0  0.28526  0.10240  0.00000  1.0000
  Fe  Fe1       1.0  0.78626  0.33853  0.50000  1.0000
