data_image0
_chemical_formula_structural       Li8O2S4Fe2
_chemical_formula_sum              "Li8 O2 S4 Fe2"
_cell_length_a       3.86948
_cell_length_b       7.16566
_cell_length_c       9.18515
_cell_angle_alpha    82.1742
_cell_angle_beta     79.2384
_cell_angle_gamma    86.2505

_space_group_name_H-M_alt    "P 1"
_space_group_IT_number       1

loop_
  _space_group_symop_operation_xyz
  'x, y, z'

loop_
  _atom_site_type_symbol
  _atom_site_label
  _atom_site_symmetry_multiplicity
  _atom_site_fract_x
  _atom_site_fract_y
  _atom_site_fract_z
  _atom_site_occupancy
  Li  Li1       1.0  0.27319  0.64308  0.94997  1.0000
  Li  Li2       1.0  0.72681  0.35692  0.05003  1.0000
  Li  Li3       1.0  0.59539  0.44378  0.35604  1.0000
  Li  Li4       1.0  0.40461  0.55622  0.64396  1.0000
  Li  Li5       1.0  0.31183  0.10712  0.37345  1.0000
  Li  Li6       1.0  0.68817  0.89288  0.62655  1.0000
  Li  Li7       1.0  0.74960  0.89374  0.00724  1.0000
  Li  Li8       1.0  0.25040  0.10626  0.99276  1.0000
  O   O1        1.0  0.23312  0.84530  0.05686  1.0000
  O   O2        1.0  0.76688  0.15470  0.94314  1.0000
  S   S1        1.0  0.53662  0.77649  0.40947  1.0000
  S   S2        1.0  0.46338  0.22351  0.59053  1.0000
  S   S3        1.0  0.83884  0.61399  0.79355  1.0000
  S   S4        1.0  0.16116  0.38601  0.20645  1.0000
  Fe  Fe1       1.0  0.89084  0.27071  0.74604  1.0000
  Fe  Fe2       1.0  0.10916  0.72929  0.25396  1.0000
