data_image0
_chemical_formula_structural       Li12O6S2Fe2
_chemical_formula_sum              "Li12 O6 S2 Fe2"
_cell_length_a       3.76848
_cell_length_b       6.4536
_cell_length_c       10.4708
_cell_angle_alpha    87.5135
_cell_angle_beta     89.9669
_cell_angle_gamma    89.9908

_space_group_name_H-M_alt    "P 1"
_space_group_IT_number       1

loop_
  _space_group_symop_operation_xyz
  'x, y, z'

loop_
  _atom_site_type_symbol
  _atom_site_label
  _atom_site_symmetry_multiplicity
  _atom_site_fract_x
  _atom_site_fract_y
  _atom_site_fract_z
  _atom_site_occupancy
  Li  Li1       1.0  0.24972  0.17822  0.41398  1.0000
  Li  Li2       1.0  0.75028  0.82178  0.58602  1.0000
  Li  Li3       1.0  0.74990  0.45470  0.30876  1.0000
  Li  Li4       1.0  0.25010  0.54530  0.69124  1.0000
  Li  Li5       1.0  0.25009  0.95605  0.07366  1.0000
  Li  Li6       1.0  0.74991  0.04395  0.92634  1.0000
  Li  Li7       1.0  0.24986  0.35799  0.93556  1.0000
  Li  Li8       1.0  0.75014  0.64201  0.06444  1.0000
  Li  Li9       1.0  0.74990  0.35692  0.52682  1.0000
  Li  Li10      1.0  0.25010  0.64308  0.47318  1.0000
  Li  Li11      1.0  0.74985  0.21325  0.16985  1.0000
  Li  Li12      1.0  0.25015  0.78675  0.83015  1.0000
  O   O1        1.0  0.25005  0.06412  0.88528  1.0000
  O   O2        1.0  0.74995  0.93588  0.11472  1.0000
  O   O3        1.0  0.74986  0.15795  0.36659  1.0000
  O   O4        1.0  0.25014  0.84205  0.63341  1.0000
  O   O5        1.0  0.24978  0.34066  0.57084  1.0000
  O   O6        1.0  0.75022  0.65934  0.42916  1.0000
  S   S1        1.0  0.75029  0.54776  0.84160  1.0000
  S   S2        1.0  0.24971  0.45224  0.15840  1.0000
  Fe  Fe1       1.0  0.75003  0.88252  0.30219  1.0000
  Fe  Fe2       1.0  0.24997  0.11748  0.69781  1.0000
