data_image0
_chemical_formula_structural       Li6O3SFe
_chemical_formula_sum              "Li6 O3 S1 Fe1"
_cell_length_a       3.51775
_cell_length_b       6.1073
_cell_length_c       6.1073
_cell_angle_alpha    109.099
_cell_angle_beta     90.0173
_cell_angle_gamma    90.0173

_space_group_name_H-M_alt    "P 1"
_space_group_IT_number       1

loop_
  _space_group_symop_operation_xyz
  'x, y, z'

loop_
  _atom_site_type_symbol
  _atom_site_label
  _atom_site_symmetry_multiplicity
  _atom_site_fract_x
  _atom_site_fract_y
  _atom_site_fract_z
  _atom_site_occupancy
  Li  Li1       1.0  0.00458  0.36782  0.24676  1.0000
  Li  Li2       1.0  0.99542  0.75324  0.63218  1.0000
  Li  Li3       1.0  0.99991  0.03567  0.39101  1.0000
  Li  Li4       1.0  0.00009  0.60899  0.96433  1.0000
  Li  Li5       1.0  0.50000  0.35792  0.64208  1.0000
  Li  Li6       1.0  0.50000  0.73256  0.26744  1.0000
  O   O1        1.0  0.50045  0.17861  0.31419  1.0000
  O   O2        1.0  0.49955  0.68581  0.82139  1.0000
  O   O3        1.0  0.00000  0.69472  0.30528  1.0000
  S   S1        1.0  0.00000  0.18739  0.81261  1.0000
  Fe  Fe1       1.0  0.50000  0.01906  0.98094  1.0000
