data_image0
_chemical_formula_structural       Li3O4S2Fe3
_chemical_formula_sum              "Li3 O4 S2 Fe3"
_cell_length_a       3.51981
_cell_length_b       6.56657
_cell_length_c       8.03596
_cell_angle_alpha    112.344
_cell_angle_beta     91.7567
_cell_angle_gamma    98.6448

_space_group_name_H-M_alt    "P 1"
_space_group_IT_number       1

loop_
  _space_group_symop_operation_xyz
  'x, y, z'

loop_
  _atom_site_type_symbol
  _atom_site_label
  _atom_site_symmetry_multiplicity
  _atom_site_fract_x
  _atom_site_fract_y
  _atom_site_fract_z
  _atom_site_occupancy
  Li  Li1       1.0  0.06944  0.83693  0.70800  1.0000
  Li  Li2       1.0  0.93056  0.16307  0.29200  1.0000
  Li  Li3       1.0  0.50000  0.00000  0.50000  1.0000
  O   O1        1.0  0.54406  0.73531  0.56595  1.0000
  O   O2        1.0  0.45594  0.26469  0.43405  1.0000
  O   O3        1.0  0.01537  0.59610  0.78660  1.0000
  O   O4        1.0  0.98463  0.40390  0.21340  1.0000
  S   S1        1.0  0.59314  0.77157  0.16759  1.0000
  S   S2        1.0  0.40686  0.22843  0.83241  1.0000
  Fe  Fe1       1.0  0.47847  0.48639  0.67358  1.0000
  Fe  Fe2       1.0  0.52153  0.51361  0.32642  1.0000
  Fe  Fe3       1.0  0.00000  0.50000  0.00000  1.0000
