data_image0
_chemical_formula_structural       Li3O4S2Fe3
_chemical_formula_sum              "Li3 O4 S2 Fe3"
_cell_length_a       5.27511
_cell_length_b       5.29424
_cell_length_c       5.97196
_cell_angle_alpha    63.7717
_cell_angle_beta     83.4302
_cell_angle_gamma    76.0102

_space_group_name_H-M_alt    "P 1"
_space_group_IT_number       1

loop_
  _space_group_symop_operation_xyz
  'x, y, z'

loop_
  _atom_site_type_symbol
  _atom_site_label
  _atom_site_symmetry_multiplicity
  _atom_site_fract_x
  _atom_site_fract_y
  _atom_site_fract_z
  _atom_site_occupancy
  Li  Li1       1.0  0.73777  0.53024  0.41317  1.0000
  Li  Li2       1.0  0.26223  0.46976  0.58683  1.0000
  Li  Li3       1.0  0.50000  0.50000  0.00000  1.0000
  O   O1        1.0  0.99322  0.16567  0.63015  1.0000
  O   O2        1.0  0.00678  0.83433  0.36985  1.0000
  O   O3        1.0  0.50090  0.71056  0.61491  1.0000
  O   O4        1.0  0.49910  0.28944  0.38509  1.0000
  S   S1        1.0  0.50000  0.00000  0.00000  1.0000
  S   S2        1.0  0.00000  0.50000  0.00000  1.0000
  Fe  Fe1       1.0  0.25727  0.05754  0.40014  1.0000
  Fe  Fe2       1.0  0.74273  0.94246  0.59986  1.0000
  Fe  Fe3       1.0  0.00000  0.00000  0.00000  1.0000
