data_image0
_chemical_formula_structural       Li3O4S2Fe3
_chemical_formula_sum              "Li3 O4 S2 Fe3"
_cell_length_a       2.99066
_cell_length_b       6.47403
_cell_length_c       8.06287
_cell_angle_alpha    107.252
_cell_angle_beta     100.236
_cell_angle_gamma    90.5134

_space_group_name_H-M_alt    "P 1"
_space_group_IT_number       1

loop_
  _space_group_symop_operation_xyz
  'x, y, z'

loop_
  _atom_site_type_symbol
  _atom_site_label
  _atom_site_symmetry_multiplicity
  _atom_site_fract_x
  _atom_site_fract_y
  _atom_site_fract_z
  _atom_site_occupancy
  Li  Li1       1.0  0.61982  0.39077  0.74552  1.0000
  Li  Li2       1.0  0.38018  0.60923  0.25448  1.0000
  Li  Li3       1.0  0.00000  0.50000  0.50000  1.0000
  O   O1        1.0  0.87396  0.39159  0.24050  1.0000
  O   O2        1.0  0.12604  0.60841  0.75950  1.0000
  O   O3        1.0  0.47473  0.22492  0.48793  1.0000
  O   O4        1.0  0.52527  0.77508  0.51207  1.0000
  S   S1        1.0  0.82535  0.87771  0.14891  1.0000
  S   S2        1.0  0.17465  0.12229  0.85109  1.0000
  Fe  Fe1       1.0  0.63275  0.80937  0.77028  1.0000
  Fe  Fe2       1.0  0.36725  0.19063  0.22972  1.0000
  Fe  Fe3       1.0  0.00000  0.00000  0.50000  1.0000
