data_image0
_chemical_formula_structural       Li3O4S2Fe3
_chemical_formula_sum              "Li3 O4 S2 Fe3"
_cell_length_a       3.29318
_cell_length_b       5.54424
_cell_length_c       8.1092
_cell_angle_alpha    76.75
_cell_angle_beta     82.223
_cell_angle_gamma    86.1497

_space_group_name_H-M_alt    "P 1"
_space_group_IT_number       1

loop_
  _space_group_symop_operation_xyz
  'x, y, z'

loop_
  _atom_site_type_symbol
  _atom_site_label
  _atom_site_symmetry_multiplicity
  _atom_site_fract_x
  _atom_site_fract_y
  _atom_site_fract_z
  _atom_site_occupancy
  Li  Li1       1.0  0.33207  0.42723  0.38655  1.0000
  Li  Li2       1.0  0.66793  0.57277  0.61345  1.0000
  Li  Li3       1.0  0.50000  0.00000  0.00000  1.0000
  O   O1        1.0  0.82697  0.23016  0.49949  1.0000
  O   O2        1.0  0.17303  0.76984  0.50051  1.0000
  O   O3        1.0  0.54754  0.82448  0.79636  1.0000
  O   O4        1.0  0.45246  0.17552  0.20364  1.0000
  S   S1        1.0  0.06146  0.31530  0.84620  1.0000
  S   S2        1.0  0.93854  0.68470  0.15380  1.0000
  Fe  Fe1       1.0  0.93942  0.02798  0.32395  1.0000
  Fe  Fe2       1.0  0.06058  0.97202  0.67605  1.0000
  Fe  Fe3       1.0  0.50000  0.50000  0.00000  1.0000
