data_image0
_chemical_formula_structural       LiOS4Fe3
_chemical_formula_sum              "Li1 O1 S4 Fe3"
_cell_length_a       4.03692
_cell_length_b       6.27388
_cell_length_c       6.96435
_cell_angle_alpha    69.6895
_cell_angle_beta     73.1546
_cell_angle_gamma    83.4799

_space_group_name_H-M_alt    "P 1"
_space_group_IT_number       1

loop_
  _space_group_symop_operation_xyz
  'x, y, z'

loop_
  _atom_site_type_symbol
  _atom_site_label
  _atom_site_symmetry_multiplicity
  _atom_site_fract_x
  _atom_site_fract_y
  _atom_site_fract_z
  _atom_site_occupancy
  Li  Li1       1.0  0.50000  0.00000  0.50000  1.0000
  O   O1        1.0  0.50000  0.50000  0.00000  1.0000
  S   S1        1.0  0.08116  0.14934  0.87676  1.0000
  S   S2        1.0  0.91884  0.85066  0.12324  1.0000
  S   S3        1.0  0.16567  0.67915  0.60215  1.0000
  S   S4        1.0  0.83433  0.32085  0.39785  1.0000
  Fe  Fe1       1.0  0.35612  0.58801  0.27414  1.0000
  Fe  Fe2       1.0  0.64388  0.41199  0.72586  1.0000
  Fe  Fe3       1.0  0.00000  0.50000  0.00000  1.0000
