data_image0
_chemical_formula_structural       LiOS4Fe3
_chemical_formula_sum              "Li1 O1 S4 Fe3"
_cell_length_a       3.44773
_cell_length_b       5.01405
_cell_length_c       8.25569
_cell_angle_alpha    83.103
_cell_angle_beta     85.6756
_cell_angle_gamma    89.4618

_space_group_name_H-M_alt    "P 1"
_space_group_IT_number       1

loop_
  _space_group_symop_operation_xyz
  'x, y, z'

loop_
  _atom_site_type_symbol
  _atom_site_label
  _atom_site_symmetry_multiplicity
  _atom_site_fract_x
  _atom_site_fract_y
  _atom_site_fract_z
  _atom_site_occupancy
  Li  Li1       1.0  0.00000  0.00000  0.00000  1.0000
  O   O1        1.0  0.50000  0.50000  0.50000  1.0000
  S   S1        1.0  0.96803  0.95365  0.70213  1.0000
  S   S2        1.0  0.03197  0.04635  0.29787  1.0000
  S   S3        1.0  0.53004  0.36246  0.91639  1.0000
  S   S4        1.0  0.46996  0.63754  0.08361  1.0000
  Fe  Fe1       1.0  0.91019  0.53820  0.31398  1.0000
  Fe  Fe2       1.0  0.08981  0.46180  0.68602  1.0000
  Fe  Fe3       1.0  0.50000  0.00000  0.50000  1.0000
