data_image0
_chemical_formula_structural       Li2O2S8Fe6
_chemical_formula_sum              "Li2 O2 S8 Fe6"
_cell_length_a       6.7279
_cell_length_b       6.76497
_cell_length_c       8.70182
_cell_angle_alpha    72.1409
_cell_angle_beta     80.554
_cell_angle_gamma    65.0106

_space_group_name_H-M_alt    "P 1"
_space_group_IT_number       1

loop_
  _space_group_symop_operation_xyz
  'x, y, z'

loop_
  _atom_site_type_symbol
  _atom_site_label
  _atom_site_symmetry_multiplicity
  _atom_site_fract_x
  _atom_site_fract_y
  _atom_site_fract_z
  _atom_site_occupancy
  Li  Li1       1.0  0.49881  0.87281  0.82373  1.0000
  Li  Li2       1.0  0.50119  0.12719  0.17627  1.0000
  O   O1        1.0  0.65174  0.97791  0.37721  1.0000
  O   O2        1.0  0.34826  0.02209  0.62279  1.0000
  S   S1        1.0  0.18327  0.17872  0.92120  1.0000
  S   S2        1.0  0.81673  0.82128  0.07880  1.0000
  S   S3        1.0  0.11447  0.13958  0.17255  1.0000
  S   S4        1.0  0.88553  0.86042  0.82745  1.0000
  S   S5        1.0  0.22652  0.61243  0.50881  1.0000
  S   S6        1.0  0.77348  0.38757  0.49119  1.0000
  S   S7        1.0  0.55250  0.47673  0.88112  1.0000
  S   S8        1.0  0.44750  0.52327  0.11888  1.0000
  Fe  Fe1       1.0  0.03887  0.13886  0.69114  1.0000
  Fe  Fe2       1.0  0.96113  0.86114  0.30886  1.0000
  Fe  Fe3       1.0  0.21046  0.53032  0.80184  1.0000
  Fe  Fe4       1.0  0.78954  0.46968  0.19816  1.0000
  Fe  Fe5       1.0  0.50075  0.77181  0.50897  1.0000
  Fe  Fe6       1.0  0.49925  0.22819  0.49103  1.0000
