data_image0
_chemical_formula_structural       Li2O2S8Fe6
_chemical_formula_sum              "Li2 O2 S8 Fe6"
_cell_length_a       3.51073
_cell_length_b       6.22509
_cell_length_c       15.8561
_cell_angle_alpha    90
_cell_angle_beta     90.5275
_cell_angle_gamma    90

_space_group_name_H-M_alt    "P 1"
_space_group_IT_number       1

loop_
  _space_group_symop_operation_xyz
  'x, y, z'

loop_
  _atom_site_type_symbol
  _atom_site_label
  _atom_site_symmetry_multiplicity
  _atom_site_fract_x
  _atom_site_fract_y
  _atom_site_fract_z
  _atom_site_occupancy
  Li  Li1       1.0  0.73586  0.12127  0.13503  1.0000
  Li  Li2       1.0  0.26414  0.62127  0.86497  1.0000
  O   O1        1.0  0.23950  0.27724  0.15237  1.0000
  O   O2        1.0  0.76050  0.77724  0.84763  1.0000
  S   S1        1.0  0.24922  0.57125  0.37663  1.0000
  S   S2        1.0  0.75078  0.07125  0.62337  1.0000
  S   S3        1.0  0.25498  0.53916  0.68902  1.0000
  S   S4        1.0  0.74502  0.03916  0.31098  1.0000
  S   S5        1.0  0.75089  0.86567  0.52248  1.0000
  S   S6        1.0  0.24911  0.36567  0.47752  1.0000
  S   S7        1.0  0.27055  0.82406  0.03892  1.0000
  S   S8        1.0  0.72945  0.32406  0.96108  1.0000
  Fe  Fe1       1.0  0.75428  0.46957  0.58282  1.0000
  Fe  Fe2       1.0  0.24572  0.96957  0.41718  1.0000
  Fe  Fe3       1.0  0.75611  0.79451  0.72881  1.0000
  Fe  Fe4       1.0  0.24389  0.29451  0.27119  1.0000
  Fe  Fe5       1.0  0.77055  0.94596  0.94840  1.0000
  Fe  Fe6       1.0  0.22945  0.44596  0.05160  1.0000
