data_image0
_chemical_formula_structural       Li3OS5Fe3
_chemical_formula_sum              "Li3 O1 S5 Fe3"
_cell_length_a       5.991
_cell_length_b       5.991
_cell_length_c       6.03132
_cell_angle_alpha    92.1851
_cell_angle_beta     92.1851
_cell_angle_gamma    118.626

_space_group_name_H-M_alt    "P 1"
_space_group_IT_number       1

loop_
  _space_group_symop_operation_xyz
  'x, y, z'

loop_
  _atom_site_type_symbol
  _atom_site_label
  _atom_site_symmetry_multiplicity
  _atom_site_fract_x
  _atom_site_fract_y
  _atom_site_fract_z
  _atom_site_occupancy
  Li  Li1       1.0  0.92464  0.19709  0.66735  1.0000
  Li  Li2       1.0  0.19709  0.92464  0.66735  1.0000
  Li  Li3       1.0  0.54784  0.54784  0.60142  1.0000
  O   O1        1.0  0.13090  0.13090  0.94656  1.0000
  S   S1        1.0  0.17230  0.50694  0.36234  1.0000
  S   S2        1.0  0.50694  0.17230  0.36234  1.0000
  S   S3        1.0  0.80590  0.47321  0.89840  1.0000
  S   S4        1.0  0.47321  0.80590  0.89840  1.0000
  S   S5        1.0  0.85015  0.85015  0.38088  1.0000
  Fe  Fe1       1.0  0.83270  0.14659  0.13193  1.0000
  Fe  Fe2       1.0  0.14659  0.83270  0.13193  1.0000
  Fe  Fe3       1.0  0.43309  0.43309  0.09957  1.0000
