data_image0
_chemical_formula_structural       Li6O2S10Fe6
_chemical_formula_sum              "Li6 O2 S10 Fe6"
_cell_length_a       3.50826
_cell_length_b       6.07323
_cell_length_c       17.8217
_cell_angle_alpha    96.2498
_cell_angle_beta     90
_cell_angle_gamma    90

_space_group_name_H-M_alt    "P 1"
_space_group_IT_number       1

loop_
  _space_group_symop_operation_xyz
  'x, y, z'

loop_
  _atom_site_type_symbol
  _atom_site_label
  _atom_site_symmetry_multiplicity
  _atom_site_fract_x
  _atom_site_fract_y
  _atom_site_fract_z
  _atom_site_occupancy
  Li  Li1       1.0  0.50711  0.13183  0.32070  1.0000
  Li  Li2       1.0  0.49289  0.63183  0.82070  1.0000
  Li  Li3       1.0  0.01893  0.04365  0.43690  1.0000
  Li  Li4       1.0  0.98107  0.54365  0.93690  1.0000
  Li  Li5       1.0  0.85929  0.71175  0.30299  1.0000
  Li  Li6       1.0  0.14071  0.21175  0.80299  1.0000
  O   O1        1.0  0.45667  0.38709  0.88557  1.0000
  O   O2        1.0  0.54333  0.88709  0.38557  1.0000
  S   S1        1.0  0.98376  0.91266  0.87979  1.0000
  S   S2        1.0  0.01624  0.41266  0.37979  1.0000
  S   S3        1.0  0.03082  0.78375  0.54149  1.0000
  S   S4        1.0  0.96918  0.28375  0.04149  1.0000
  S   S5        1.0  0.96952  0.00303  0.20951  1.0000
  S   S6        1.0  0.03048  0.50303  0.70951  1.0000
  S   S7        1.0  0.53078  0.29504  0.54548  1.0000
  S   S8        1.0  0.46922  0.79504  0.04548  1.0000
  S   S9        1.0  0.46409  0.50182  0.19987  1.0000
  S   S10       1.0  0.53591  0.00182  0.69987  1.0000
  Fe  Fe1       1.0  0.51527  0.63945  0.44005  1.0000
  Fe  Fe2       1.0  0.48473  0.13945  0.94005  1.0000
  Fe  Fe3       1.0  0.52837  0.63629  0.62970  1.0000
  Fe  Fe4       1.0  0.47163  0.13629  0.12970  1.0000
  Fe  Fe5       1.0  0.03384  0.15137  0.62365  1.0000
  Fe  Fe6       1.0  0.96616  0.65137  0.12365  1.0000
