data_image0
_chemical_formula_structural       Li3OS5Fe3
_chemical_formula_sum              "Li3 O1 S5 Fe3"
_cell_length_a       6.42905
_cell_length_b       6.64815
_cell_length_c       6.64815
_cell_angle_alpha    119.953
_cell_angle_beta     90.9841
_cell_angle_gamma    90.9841

_space_group_name_H-M_alt    "P 1"
_space_group_IT_number       1

loop_
  _space_group_symop_operation_xyz
  'x, y, z'

loop_
  _atom_site_type_symbol
  _atom_site_label
  _atom_site_symmetry_multiplicity
  _atom_site_fract_x
  _atom_site_fract_y
  _atom_site_fract_z
  _atom_site_occupancy
  Li  Li1       1.0  0.78666  0.29467  0.01232  1.0000
  Li  Li2       1.0  0.78666  0.01232  0.29467  1.0000
  Li  Li3       1.0  0.71466  0.74197  0.74197  1.0000
  O   O1        1.0  0.84604  0.00586  0.00586  1.0000
  S   S1        1.0  0.22243  0.35202  0.00875  1.0000
  S   S2        1.0  0.22243  0.00875  0.35202  1.0000
  S   S3        1.0  0.71087  0.67616  0.34056  1.0000
  S   S4        1.0  0.71087  0.34056  0.67616  1.0000
  S   S5        1.0  0.27039  0.68376  0.68376  1.0000
  Fe  Fe1       1.0  0.37276  0.67930  0.34067  1.0000
  Fe  Fe2       1.0  0.37276  0.34067  0.67930  1.0000
  Fe  Fe3       1.0  0.12712  0.00378  0.00378  1.0000
