data_image0
_chemical_formula_structural       Li6O2S2Fe
_chemical_formula_sum              "Li6 O2 S2 Fe1"
_cell_length_a       3.87624
_cell_length_b       5.96319
_cell_length_c       6.90799
_cell_angle_alpha    93.6142
_cell_angle_beta     106.169
_cell_angle_gamma    90.1773

_space_group_name_H-M_alt    "P 1"
_space_group_IT_number       1

loop_
  _space_group_symop_operation_xyz
  'x, y, z'

loop_
  _atom_site_type_symbol
  _atom_site_label
  _atom_site_symmetry_multiplicity
  _atom_site_fract_x
  _atom_site_fract_y
  _atom_site_fract_z
  _atom_site_occupancy
  Li  Li1       1.0  0.80872  0.37592  0.61574  1.0000
  Li  Li2       1.0  0.19128  0.62408  0.38426  1.0000
  Li  Li3       1.0  0.43133  0.22411  0.86419  1.0000
  Li  Li4       1.0  0.56867  0.77589  0.13581  1.0000
  Li  Li5       1.0  0.08429  0.11351  0.17028  1.0000
  Li  Li6       1.0  0.91571  0.88649  0.82972  1.0000
  O   O1        1.0  0.92563  0.19987  0.85306  1.0000
  O   O2        1.0  0.07437  0.80013  0.14694  1.0000
  S   S1        1.0  0.37351  0.63752  0.74630  1.0000
  S   S2        1.0  0.62649  0.36248  0.25370  1.0000
  Fe  Fe1       1.0  0.00000  0.50000  0.00000  1.0000
