data_image0
_chemical_formula_structural       Li6O2S2Fe
_chemical_formula_sum              "Li6 O2 S2 Fe1"
_cell_length_a       3.8538
_cell_length_b       6.01645
_cell_length_c       6.50318
_cell_angle_alpha    67.7318
_cell_angle_beta     84.6162
_cell_angle_gamma    86.9796

_space_group_name_H-M_alt    "P 1"
_space_group_IT_number       1

loop_
  _space_group_symop_operation_xyz
  'x, y, z'

loop_
  _atom_site_type_symbol
  _atom_site_label
  _atom_site_symmetry_multiplicity
  _atom_site_fract_x
  _atom_site_fract_y
  _atom_site_fract_z
  _atom_site_occupancy
  Li  Li1       1.0  0.24239  0.67954  0.89385  1.0000
  Li  Li2       1.0  0.75761  0.32046  0.10615  1.0000
  Li  Li3       1.0  0.76861  0.02417  0.87639  1.0000
  Li  Li4       1.0  0.23139  0.97583  0.12361  1.0000
  Li  Li5       1.0  0.73935  0.63869  0.33863  1.0000
  Li  Li6       1.0  0.26065  0.36131  0.66137  1.0000
  O   O1        1.0  0.70667  0.98066  0.20536  1.0000
  O   O2        1.0  0.29333  0.01934  0.79464  1.0000
  S   S1        1.0  0.24622  0.41811  0.27829  1.0000
  S   S2        1.0  0.75378  0.58189  0.72171  1.0000
  Fe  Fe1       1.0  0.50000  0.00000  0.50000  1.0000
