data_image0
_chemical_formula_structural       Li8O6S4Fe4
_chemical_formula_sum              "Li8 O6 S4 Fe4"
_cell_length_a       5.65926
_cell_length_b       5.65926
_cell_length_c       11.7306
_cell_angle_alpha    102.507
_cell_angle_beta     102.507
_cell_angle_gamma    95.8674

_space_group_name_H-M_alt    "P 1"
_space_group_IT_number       1

loop_
  _space_group_symop_operation_xyz
  'x, y, z'

loop_
  _atom_site_type_symbol
  _atom_site_label
  _atom_site_symmetry_multiplicity
  _atom_site_fract_x
  _atom_site_fract_y
  _atom_site_fract_z
  _atom_site_occupancy
  Li  Li1       1.0  0.43612  0.15018  0.97700  1.0000
  Li  Li2       1.0  0.84982  0.56388  0.02300  1.0000
  Li  Li3       1.0  0.70911  0.92318  0.52300  1.0000
  Li  Li4       1.0  0.07682  0.29089  0.47700  1.0000
  Li  Li5       1.0  0.02372  0.91686  0.25269  1.0000
  Li  Li6       1.0  0.08314  0.97628  0.74732  1.0000
  Li  Li7       1.0  0.02103  0.41417  0.24732  1.0000
  Li  Li8       1.0  0.58583  0.97896  0.75269  1.0000
  O   O1        1.0  0.77149  0.79403  0.65851  1.0000
  O   O2        1.0  0.20597  0.22851  0.34149  1.0000
  O   O3        1.0  0.36298  0.88552  0.84149  1.0000
  O   O4        1.0  0.11448  0.63702  0.15851  1.0000
  O   O5        1.0  0.50045  0.49955  0.00000  1.0000
  O   O6        1.0  0.75045  0.24955  0.50000  1.0000
  S   S1        1.0  0.70342  0.65356  0.33415  1.0000
  S   S2        1.0  0.34644  0.29658  0.66586  1.0000
  S   S3        1.0  0.61928  0.06942  0.16586  1.0000
  S   S4        1.0  0.93058  0.38072  0.83415  1.0000
  Fe  Fe1       1.0  0.43444  0.66911  0.14940  1.0000
  Fe  Fe2       1.0  0.33089  0.56556  0.85060  1.0000
  Fe  Fe3       1.0  0.53505  0.26971  0.35060  1.0000
  Fe  Fe4       1.0  0.73029  0.46495  0.64940  1.0000
