data_image0
_chemical_formula_structural       Li4OS3Fe2
_chemical_formula_sum              "Li4 O1 S3 Fe2"
_cell_length_a       3.80316
_cell_length_b       5.76453
_cell_length_c       7.42906
_cell_angle_alpha    87.9438
_cell_angle_beta     78.345
_cell_angle_gamma    87.8287

_space_group_name_H-M_alt    "P 1"
_space_group_IT_number       1

loop_
  _space_group_symop_operation_xyz
  'x, y, z'

loop_
  _atom_site_type_symbol
  _atom_site_label
  _atom_site_symmetry_multiplicity
  _atom_site_fract_x
  _atom_site_fract_y
  _atom_site_fract_z
  _atom_site_occupancy
  Li  Li1       1.0  0.49691  0.25724  0.47627  1.0000
  Li  Li2       1.0  0.50309  0.74276  0.52373  1.0000
  Li  Li3       1.0  0.16034  0.29180  0.09865  1.0000
  Li  Li4       1.0  0.83966  0.70820  0.90135  1.0000
  O   O1        1.0  0.00000  0.00000  0.00000  1.0000
  S   S1        1.0  0.59665  0.54058  0.22756  1.0000
  S   S2        1.0  0.40335  0.45942  0.77244  1.0000
  S   S3        1.0  0.00000  0.00000  0.50000  1.0000
  Fe  Fe1       1.0  0.10166  0.80871  0.20415  1.0000
  Fe  Fe2       1.0  0.89834  0.19129  0.79585  1.0000
