data_image0
_chemical_formula_structural       Li8O2S6Fe4
_chemical_formula_sum              "Li8 O2 S6 Fe4"
_cell_length_a       5.578
_cell_length_b       6.43592
_cell_length_c       10.5845
_cell_angle_alpha    90
_cell_angle_beta     90
_cell_angle_gamma    104.817

_space_group_name_H-M_alt    "P 1"
_space_group_IT_number       1

loop_
  _space_group_symop_operation_xyz
  'x, y, z'

loop_
  _atom_site_type_symbol
  _atom_site_label
  _atom_site_symmetry_multiplicity
  _atom_site_fract_x
  _atom_site_fract_y
  _atom_site_fract_z
  _atom_site_occupancy
  Li  Li1       1.0  0.15428  0.88191  0.13532  1.0000
  Li  Li2       1.0  0.84572  0.11809  0.63532  1.0000
  Li  Li3       1.0  0.52862  0.82701  0.44770  1.0000
  Li  Li4       1.0  0.47138  0.17299  0.94770  1.0000
  Li  Li5       1.0  0.86030  0.13633  0.27091  1.0000
  Li  Li6       1.0  0.13970  0.86367  0.77091  1.0000
  Li  Li7       1.0  0.41832  0.43456  0.32502  1.0000
  Li  Li8       1.0  0.58168  0.56544  0.82502  1.0000
  O   O1        1.0  0.27521  0.56910  0.45259  1.0000
  O   O2        1.0  0.72479  0.43090  0.95259  1.0000
  S   S1        1.0  0.64151  0.21768  0.45490  1.0000
  S   S2        1.0  0.35849  0.78232  0.95490  1.0000
  S   S3        1.0  0.20936  0.25421  0.76537  1.0000
  S   S4        1.0  0.79064  0.74579  0.26537  1.0000
  S   S5        1.0  0.22154  0.26594  0.13657  1.0000
  S   S6        1.0  0.77846  0.73406  0.63657  1.0000
  Fe  Fe1       1.0  0.06413  0.41918  0.95668  1.0000
  Fe  Fe2       1.0  0.93587  0.58082  0.45668  1.0000
  Fe  Fe3       1.0  0.41484  0.42391  0.58165  1.0000
  Fe  Fe4       1.0  0.58516  0.57609  0.08165  1.0000
