data_image0
_chemical_formula_structural       Li8O2S6Fe4
_chemical_formula_sum              "Li8 O2 S6 Fe4"
_cell_length_a       3.91672
_cell_length_b       7.95806
_cell_length_c       11.5163
_cell_angle_alpha    79.627
_cell_angle_beta     89.9163
_cell_angle_gamma    89.6652

_space_group_name_H-M_alt    "P 1"
_space_group_IT_number       1

loop_
  _space_group_symop_operation_xyz
  'x, y, z'

loop_
  _atom_site_type_symbol
  _atom_site_label
  _atom_site_symmetry_multiplicity
  _atom_site_fract_x
  _atom_site_fract_y
  _atom_site_fract_z
  _atom_site_occupancy
  Li  Li1       1.0  0.75056  0.84900  0.49720  1.0000
  Li  Li2       1.0  0.24944  0.15100  0.50280  1.0000
  Li  Li3       1.0  0.75016  0.79449  0.78886  1.0000
  Li  Li4       1.0  0.24984  0.20551  0.21114  1.0000
  Li  Li5       1.0  0.25036  0.74211  0.99422  1.0000
  Li  Li6       1.0  0.74964  0.25789  0.00578  1.0000
  Li  Li7       1.0  0.75138  0.99655  0.24079  1.0000
  Li  Li8       1.0  0.24862  0.00345  0.75921  1.0000
  O   O1        1.0  0.74954  0.22988  0.16534  1.0000
  O   O2        1.0  0.25046  0.77012  0.83466  1.0000
  S   S1        1.0  0.74874  0.06668  0.63350  1.0000
  S   S2        1.0  0.25126  0.93332  0.36650  1.0000
  S   S3        1.0  0.24902  0.27042  0.87252  1.0000
  S   S4        1.0  0.75098  0.72958  0.12748  1.0000
  S   S5        1.0  0.24737  0.41906  0.36427  1.0000
  S   S6        1.0  0.75263  0.58094  0.63573  1.0000
  Fe  Fe1       1.0  0.25220  0.57781  0.75408  1.0000
  Fe  Fe2       1.0  0.74780  0.42219  0.24592  1.0000
  Fe  Fe3       1.0  0.74805  0.29284  0.73779  1.0000
  Fe  Fe4       1.0  0.25195  0.70716  0.26221  1.0000
