data_image0
_chemical_formula_structural       Li4OS3Fe2
_chemical_formula_sum              "Li4 O1 S3 Fe2"
_cell_length_a       3.8128
_cell_length_b       5.76997
_cell_length_c       7.20767
_cell_angle_alpha    91.5598
_cell_angle_beta     102.453
_cell_angle_gamma    91.4025

_space_group_name_H-M_alt    "P 1"
_space_group_IT_number       1

loop_
  _space_group_symop_operation_xyz
  'x, y, z'

loop_
  _atom_site_type_symbol
  _atom_site_label
  _atom_site_symmetry_multiplicity
  _atom_site_fract_x
  _atom_site_fract_y
  _atom_site_fract_z
  _atom_site_occupancy
  Li  Li1       1.0  0.60094  0.80326  0.29452  1.0000
  Li  Li2       1.0  0.39906  0.19674  0.70548  1.0000
  Li  Li3       1.0  0.98515  0.75290  0.98884  1.0000
  Li  Li4       1.0  0.01485  0.24710  0.01116  1.0000
  O   O1        1.0  0.50000  0.00000  0.50000  1.0000
  S   S1        1.0  0.10234  0.51376  0.27904  1.0000
  S   S2        1.0  0.89766  0.48624  0.72096  1.0000
  S   S3        1.0  0.50000  0.00000  0.00000  1.0000
  Fe  Fe1       1.0  0.35374  0.72443  0.61649  1.0000
  Fe  Fe2       1.0  0.64626  0.27557  0.38351  1.0000
